Global frequency set at 1000000000000 ticks per second
      0: global: BTB: Creating BTB object.
      0: system.cpu.fetch1: lineSnap set to cache line size of: 512
      0: system.cpu.fetch1: [tid:0]: Changing stream wakeup (0=>0x4).(0=>1)
      0: system.cpu.fetch1: [tid:0]: Changing stream wakeup (0x10200=>0x10204).(0=>1)
gem5 Simulator System.  https://www.gem5.org
gem5 is copyrighted software; use the --copyright option for details.

gem5 version 22.1.0.0
gem5 compiled Sep  8 2024 18:06:16
gem5 started Sep  8 2024 18:07:00
gem5 executing on bernoulli, pid 310363
command line: ./build/RISCV/gem5.debug --debug-flags=Branch,Fetch,Decode,MinorExecute,MinorMemory,MinorWriteback,MinorScoreboard,MinorGUI configs/example/se.py --cpu-type MinorCPU --caches --l1d_size 8388608 --l1i_size 8388608 --cacheline_size 512 --cpu-clock 1MHz --sys-clock 10GHz -c test_progs/a.out

**** REAL SIMULATION ****
1000000: system.cpu.execute: Advancing FU[0]
1000000: system.cpu.execute: Advancing FU[1]
1000000: system.cpu.execute: Advancing FU[2]
1000000: system.cpu.execute: Advancing FU[3]
1000000: system.cpu.execute: Advancing FU[4]
1000000: system.cpu.execute: Advancing FU[5]
1000000: system.cpu.execute: Advancing FU[6]
1000000: system.cpu.execute: Advancing FU[7]
1000000: system.cpu.decode: Scheduled Thread: 0
1000000: system.cpu.fetch1: Fetching from thread 0
1000000: system.cpu.fetch1: Inserting fetch into the fetch queue 0/1.1/1 addr: 0x10200 pc: 66048 line_offset: 0 request_size: 512
1000000: system.cpu.fetch1: Submitting ITLB request
1000000: system.cpu.fetch1: Got ITLB response
1000000: system.cpu.fetch1: Issued fetch request to memory: 0/1.1/1
2000000: system.cpu.execute: Advancing FU[0]
2000000: system.cpu.execute: Advancing FU[1]
2000000: system.cpu.execute: Advancing FU[2]
2000000: system.cpu.execute: Advancing FU[3]
2000000: system.cpu.execute: Advancing FU[4]
2000000: system.cpu.execute: Advancing FU[5]
2000000: system.cpu.execute: Advancing FU[6]
2000000: system.cpu.execute: Advancing FU[7]
2000000: system.cpu.decode: Scheduled Thread: 0
3000000: system.cpu.execute: Advancing FU[0]
3000000: system.cpu.execute: Advancing FU[1]
3000000: system.cpu.execute: Advancing FU[2]
3000000: system.cpu.execute: Advancing FU[3]
3000000: system.cpu.execute: Advancing FU[4]
3000000: system.cpu.execute: Advancing FU[5]
3000000: system.cpu.execute: Advancing FU[6]
3000000: system.cpu.execute: Advancing FU[7]
3000000: system.cpu.decode: Scheduled Thread: 0
4000000: system.cpu.fetch1: recvTimingResp 1
4000000: system.cpu.execute: Advancing FU[0]
4000000: system.cpu.execute: Advancing FU[1]
4000000: system.cpu.execute: Advancing FU[2]
4000000: system.cpu.execute: Advancing FU[3]
4000000: system.cpu.execute: Advancing FU[4]
4000000: system.cpu.execute: Advancing FU[5]
4000000: system.cpu.execute: Advancing FU[6]
4000000: system.cpu.execute: Advancing FU[7]
4000000: system.cpu.decode: Scheduled Thread: 0
4000000: system.cpu.fetch1: Processing fetched line: 0/1.1/1
4000000: system.cpu.fetch1: Log4GUI: fetch1: 4000000: 0: 10200: <assembly>
5000000: system.cpu.execute: Advancing FU[0]
5000000: system.cpu.execute: Advancing FU[1]
5000000: system.cpu.execute: Advancing FU[2]
5000000: system.cpu.execute: Advancing FU[3]
5000000: system.cpu.execute: Advancing FU[4]
5000000: system.cpu.execute: Advancing FU[5]
5000000: system.cpu.execute: Advancing FU[6]
5000000: system.cpu.execute: Advancing FU[7]
5000000: system.cpu.decode: Scheduled Thread: 0
5000000: system.cpu.decode: Setting new PC value: (0x10200=>0x10204).(0=>1) inputIndex: 0x0 lineBaseAddr: 0x10200 lineWidth: 0x200
5000000: system.cpu.decoder: Requesting bytes 0x00000013 from address 0x10200
5000000: system.cpu.decode: Offering MachInst to decoder addr: 0x10200
5000000: system.cpu.decoder: Decoding instruction 0x00000013 at address 0x10200
5000000: system.cpu.decoder: Decode: Decoded addi instruction: 0x13
5000000: system.cpu.decode: decoder inst 0/1.1/1/1 pc: 0x10200 (addi)
5000000: system.cpu.decode: Instruction extracted from line 0/1.1/1 lineWidth: 512 output_index: 0 inputIndex: 0 pc: (0x10200=>0x10204).(0=>1) inst: 0/1.1/1/1 pc: 0x10200 (addi)
5000000: system.cpu.decode: Not attempting prediction for inst: 0/1.1/1/1 pc: 0x10200 (addi)
5000000: system.cpu.decode: Updated inputIndex value PC: (0x10200=>0x10204).(0=>1) inputIndex: 0x4 lineBaseAddr: 0x10200 lineWidth: 0x200
5000000: system.cpu.decode: Can pass to Execute  aaa: 0/1.1/1/1.1 pc: 0x10200 (addi)
5000000: system.cpu.decode: Log4GUI: decode: 5000000: 0: 10200: addi zero, zero, 0
5000000: system.cpu.fetch1: No active threads available to fetch from
6000000: system.cpu.execute: Attempting to issue [tid:0]
6000000: system.cpu.execute: Trying to issue inst: 0/1.1/1/1.1 pc: 0x10200 (addi) to FU: 0
6000000: system.cpu.execute: Issuing inst: 0/1.1/1/1.1 pc: 0x10200 (addi) into FU 0
6000000: system.cpu.execute: Log4GUI: execute: 6000000: 0: 10200: addi zero, zero, 0: 0
6000000: system.cpu.execute: Advancing FU[0]
6000000: system.cpu.execute: Reached inst issue limit
6000000: system.cpu.execute: Stepping to next inst inputIndex: 1
6000000: system.cpu.execute: Attempting to commit [tid:0]
6000000: system.cpu.execute: Committing micro-ops for interrupt[tid:0]
6000000: system.cpu.execute: Trying to commit canCommitInsts: 1
6000000: system.cpu.execute: Committing inst: 0/1.1/1/1.1 pc: 0x10200 (addi)
6000000: system.cpu.execute: Executing inst: 0/1.1/1/1.1 pc: 0x10200 (addi)
6000000: global: ExecContext setting PC: (0x10200=>0x10204).(0=>1)
6000000: system.cpu.execute: Executing nomemref inst: 0/1.1/1/1.1 pc: 0x10200 (addi)
6000000: system.cpu.execute: Sending inst to MEM: 0/1.1/1/1.1 pc: 0x10200 (addi)
6000000: system.cpu.execute: Unstalling 0 for inst 0/1.1/1/1.1
6000000: system.cpu.execute: Completed inst: 0/1.1/1/1.1 pc: 0x10200 (addi)
6000000: system.cpu.execute: Advancing FU[0]
6000000: system.cpu.execute: Advancing FU[1]
6000000: system.cpu.execute: Advancing FU[2]
6000000: system.cpu.execute: Advancing FU[3]
6000000: system.cpu.execute: Advancing FU[4]
6000000: system.cpu.execute: Advancing FU[5]
6000000: system.cpu.execute: Advancing FU[6]
6000000: system.cpu.execute: Advancing FU[7]
6000000: system.cpu.decode: Scheduled Thread: 0
6000000: system.cpu.decoder: Requesting bytes 0x00001097 from address 0x10204
6000000: system.cpu.decode: Offering MachInst to decoder addr: 0x10204
6000000: system.cpu.decoder: Decoding instruction 0x00001097 at address 0x10204
6000000: system.cpu.decoder: Decode: Decoded auipc instruction: 0x1097
6000000: system.cpu.decode: decoder inst 0/1.1/1/2 pc: 0x10204 (auipc)
6000000: system.cpu.decode: Instruction extracted from line 0/1.1/1 lineWidth: 512 output_index: 0 inputIndex: 4 pc: (0x10204=>0x10208).(0=>1) inst: 0/1.1/1/2 pc: 0x10204 (auipc)
6000000: system.cpu.decode: Not attempting prediction for inst: 0/1.1/1/2 pc: 0x10204 (auipc)
6000000: system.cpu.decode: Updated inputIndex value PC: (0x10200=>0x10204).(0=>1) inputIndex: 0x8 lineBaseAddr: 0x10200 lineWidth: 0x200
6000000: system.cpu.decode: Cannot pass to Execute: 0/1.1/1/2.2 pc: 0x10204 (auipc)
6000000: system.cpu.decode: Log4GUI: decode: 6000000: 1: 10204: auipc ra, 1
6000000: system.cpu.fetch1: No active threads available to fetch from
7000000: system.cpu.memory: Issuing inst: 0/1.1/1/1.1 pc: 0x10200 (addi)
7000000: system.cpu.memory: Reached end of input
7000000: system.cpu.memory: Attempting to commit [tid:0]
7000000: system.cpu.memory: Committing micro-ops for interrupt[tid:0]
7000000: system.cpu.memory: Sending instruction to WB: 0/1.1/1/1.1 pc: 0x10200 (addi)
7000000: system.cpu.memory: Completed inst: 0/1.1/1/1.1 pc: 0x10200 (addi)
7000000: system.cpu.memory: Log4GUI: memory: 7000000: 0: 10200: addi zero, zero, 0
7000000: system.cpu.execute: Advancing FU[0]
7000000: system.cpu.execute: Advancing FU[1]
7000000: system.cpu.execute: Advancing FU[2]
7000000: system.cpu.execute: Advancing FU[3]
7000000: system.cpu.execute: Advancing FU[4]
7000000: system.cpu.execute: Advancing FU[5]
7000000: system.cpu.execute: Advancing FU[6]
7000000: system.cpu.execute: Advancing FU[7]
7000000: system.cpu.decode: Scheduled Thread: 0
7000000: system.cpu.execute.scoreboard0: Marking up inst: 0/1.1/1/2.2 pc: 0x10204 (auipc) regIndex: 1 final numResults: 1 returnCycle: 9
7000000: system.cpu.decode: Can pass to Execute: 0/1.1/1/2.2 pc: 0x10204 (auipc)
7000000: system.cpu.decode: Log4GUI: decode: 7000000: 0: 10204: auipc ra, 1
7000000: system.cpu.fetch1: No active threads available to fetch from
8000000: system.cpu.writeback: Received an instruction
8000000: system.cpu.writeback: Attempting to commit [tid:0]
8000000: system.cpu.writeback: Trying to commit canCommitInsts: 1
8000000: system.cpu.writeback: Committing inst: 0/1.1/1/1.1 pc: 0x10200 (addi)
8000000: global: ExecContext setting PC: (0x10200=>0x10204).(0=>1)
8000000: system.cpu.writeback: Log4GUI: writeback: 8000000: 0: 10200: addi zero, zero, 0
8000000: system.cpu.writeback: Completed inst: 0/1.1/1/1.1 pc: 0x10200 (addi)
8000000: system.cpu.writeback: Reached inst commit limit
8000000: system.cpu.writeback: Popping inputBuffer[0]
8000000: system.cpu.execute: Attempting to issue [tid:0]
8000000: system.cpu.execute: Trying to issue inst: 0/1.1/1/2.2 pc: 0x10204 (auipc) to FU: 0
8000000: system.cpu.execute: Issuing inst: 0/1.1/1/2.2 pc: 0x10204 (auipc) into FU 0
8000000: system.cpu.execute: Log4GUI: execute: 8000000: 0: 10204: auipc ra, 1: 0
8000000: system.cpu.execute: Advancing FU[0]
8000000: system.cpu.execute: Reached inst issue limit
8000000: system.cpu.execute: Stepping to next inst inputIndex: 1
8000000: system.cpu.execute: Attempting to commit [tid:0]
8000000: system.cpu.execute: Committing micro-ops for interrupt[tid:0]
8000000: system.cpu.execute: Trying to commit canCommitInsts: 1
8000000: system.cpu.execute: Committing inst: 0/1.1/1/2.2 pc: 0x10204 (auipc)
8000000: system.cpu.execute: Executing inst: 0/1.1/1/2.2 pc: 0x10204 (auipc)
8000000: global: ExecContext setting PC: (0x10204=>0x10208).(0=>1)
8000000: system.cpu.execute: Executing nomemref inst: 0/1.1/1/2.2 pc: 0x10204 (auipc)
8000000: system.cpu.execute: Sending inst to MEM: 0/1.1/1/2.2 pc: 0x10204 (auipc)
8000000: system.cpu.execute: Unstalling 0 for inst 0/1.1/1/2.2
8000000: system.cpu.execute: Completed inst: 0/1.1/1/2.2 pc: 0x10204 (auipc)
8000000: system.cpu.execute.scoreboard0: Clearing inst: 0/1.1/1/2.2 pc: 0x10204 (auipc) regIndex: 1 final numResults: 0
8000000: system.cpu.execute: Advancing FU[0]
8000000: system.cpu.execute: Advancing FU[1]
8000000: system.cpu.execute: Advancing FU[2]
8000000: system.cpu.execute: Advancing FU[3]
8000000: system.cpu.execute: Advancing FU[4]
8000000: system.cpu.execute: Advancing FU[5]
8000000: system.cpu.execute: Advancing FU[6]
8000000: system.cpu.execute: Advancing FU[7]
8000000: system.cpu.decode: Scheduled Thread: 0
8000000: system.cpu.decoder: Requesting bytes 0x3fc08093 from address 0x10208
8000000: system.cpu.decode: Offering MachInst to decoder addr: 0x10208
8000000: system.cpu.decoder: Decoding instruction 0x3fc08093 at address 0x10208
8000000: system.cpu.decoder: Decode: Decoded addi instruction: 0x3fc08093
8000000: system.cpu.decode: decoder inst 0/1.1/1/3 pc: 0x10208 (addi)
8000000: system.cpu.decode: Instruction extracted from line 0/1.1/1 lineWidth: 512 output_index: 0 inputIndex: 8 pc: (0x10208=>0x1020c).(0=>1) inst: 0/1.1/1/3 pc: 0x10208 (addi)
8000000: system.cpu.decode: Not attempting prediction for inst: 0/1.1/1/3 pc: 0x10208 (addi)
8000000: system.cpu.decode: Updated inputIndex value PC: (0x10200=>0x10204).(0=>1) inputIndex: 0xc lineBaseAddr: 0x10200 lineWidth: 0x200
8000000: system.cpu.decode: Cannot pass to Execute: 0/1.1/1/3.3 pc: 0x10208 (addi)
8000000: system.cpu.decode: Log4GUI: decode: 8000000: 1: 10208: addi ra, ra, 1020
8000000: system.cpu.fetch1: No active threads available to fetch from
9000000: system.cpu.memory: Issuing inst: 0/1.1/1/2.2 pc: 0x10204 (auipc)
9000000: system.cpu.memory: Reached end of input
9000000: system.cpu.memory: Attempting to commit [tid:0]
9000000: system.cpu.memory: Committing micro-ops for interrupt[tid:0]
9000000: system.cpu.memory: Sending instruction to WB: 0/1.1/1/2.2 pc: 0x10204 (auipc)
9000000: system.cpu.memory: Completed inst: 0/1.1/1/2.2 pc: 0x10204 (auipc)
9000000: system.cpu.memory: Log4GUI: memory: 9000000: 0: 10204: auipc ra, 1
9000000: system.cpu.execute: Advancing FU[0]
9000000: system.cpu.execute: Advancing FU[1]
9000000: system.cpu.execute: Advancing FU[2]
9000000: system.cpu.execute: Advancing FU[3]
9000000: system.cpu.execute: Advancing FU[4]
9000000: system.cpu.execute: Advancing FU[5]
9000000: system.cpu.execute: Advancing FU[6]
9000000: system.cpu.execute: Advancing FU[7]
9000000: system.cpu.decode: Scheduled Thread: 0
9000000: system.cpu.execute.scoreboard0: Marking up inst: 0/1.1/1/3.3 pc: 0x10208 (addi) regIndex: 1 final numResults: 1 returnCycle: 11
9000000: system.cpu.decode: Can pass to Execute: 0/1.1/1/3.3 pc: 0x10208 (addi)
9000000: system.cpu.decode: Log4GUI: decode: 9000000: 0: 10208: addi ra, ra, 1020
9000000: system.cpu.fetch1: No active threads available to fetch from
10000000: system.cpu.writeback: Received an instruction
10000000: system.cpu.writeback: Attempting to commit [tid:0]
10000000: system.cpu.writeback: Trying to commit canCommitInsts: 1
10000000: system.cpu.writeback: Committing inst: 0/1.1/1/2.2 pc: 0x10204 (auipc)
10000000: global: ExecContext setting PC: (0x10204=>0x10208).(0=>1)
10000000: system.cpu.writeback: Log4GUI: writeback: 10000000: 0: 10204: auipc ra, 1
10000000: system.cpu.writeback: Completed inst: 0/1.1/1/2.2 pc: 0x10204 (auipc)
10000000: system.cpu.writeback: Reached inst commit limit
10000000: system.cpu.writeback: Popping inputBuffer[0]
10000000: system.cpu.execute: Attempting to issue [tid:0]
10000000: system.cpu.execute: Trying to issue inst: 0/1.1/1/3.3 pc: 0x10208 (addi) to FU: 0
10000000: system.cpu.execute: Issuing inst: 0/1.1/1/3.3 pc: 0x10208 (addi) into FU 0
10000000: system.cpu.execute: Log4GUI: execute: 10000000: 0: 10208: addi ra, ra, 1020: 0
10000000: system.cpu.execute: Advancing FU[0]
10000000: system.cpu.execute: Reached inst issue limit
10000000: system.cpu.execute: Stepping to next inst inputIndex: 1
10000000: system.cpu.execute: Attempting to commit [tid:0]
10000000: system.cpu.execute: Committing micro-ops for interrupt[tid:0]
10000000: system.cpu.execute: Trying to commit canCommitInsts: 1
10000000: system.cpu.execute: Committing inst: 0/1.1/1/3.3 pc: 0x10208 (addi)
10000000: system.cpu.execute: Executing inst: 0/1.1/1/3.3 pc: 0x10208 (addi)
10000000: global: ExecContext setting PC: (0x10208=>0x1020c).(0=>1)
10000000: system.cpu.execute: Executing nomemref inst: 0/1.1/1/3.3 pc: 0x10208 (addi)
10000000: system.cpu.execute: Sending inst to MEM: 0/1.1/1/3.3 pc: 0x10208 (addi)
10000000: system.cpu.execute: Unstalling 0 for inst 0/1.1/1/3.3
10000000: system.cpu.execute: Completed inst: 0/1.1/1/3.3 pc: 0x10208 (addi)
10000000: system.cpu.execute.scoreboard0: Clearing inst: 0/1.1/1/3.3 pc: 0x10208 (addi) regIndex: 1 final numResults: 0
10000000: system.cpu.execute: Advancing FU[0]
10000000: system.cpu.execute: Advancing FU[1]
10000000: system.cpu.execute: Advancing FU[2]
10000000: system.cpu.execute: Advancing FU[3]
10000000: system.cpu.execute: Advancing FU[4]
10000000: system.cpu.execute: Advancing FU[5]
10000000: system.cpu.execute: Advancing FU[6]
10000000: system.cpu.execute: Advancing FU[7]
10000000: system.cpu.decode: Scheduled Thread: 0
10000000: system.cpu.decoder: Requesting bytes 0x0000a487 from address 0x1020c
10000000: system.cpu.decode: Offering MachInst to decoder addr: 0x1020c
10000000: system.cpu.decoder: Decoding instruction 0x0000a487 at address 0x1020c
10000000: system.cpu.decoder: Decode: Decoded flw instruction: 0xa487
10000000: system.cpu.decode: decoder inst 0/1.1/1/4 pc: 0x1020c (flw)
10000000: system.cpu.decode: Instruction extracted from line 0/1.1/1 lineWidth: 512 output_index: 0 inputIndex: 12 pc: (0x1020c=>0x10210).(0=>1) inst: 0/1.1/1/4 pc: 0x1020c (flw)
10000000: system.cpu.decode: Not attempting prediction for inst: 0/1.1/1/4 pc: 0x1020c (flw)
10000000: system.cpu.decode: Updated inputIndex value PC: (0x10200=>0x10204).(0=>1) inputIndex: 0x10 lineBaseAddr: 0x10200 lineWidth: 0x200
10000000: system.cpu.decode: Cannot pass to Execute: 0/1.1/1/4.4 pc: 0x1020c (flw)
10000000: system.cpu.decode: Log4GUI: decode: 10000000: 1: 1020c: flw fs1, 0(ra)
10000000: system.cpu.fetch1: No active threads available to fetch from
11000000: system.cpu.memory: Issuing inst: 0/1.1/1/3.3 pc: 0x10208 (addi)
11000000: system.cpu.memory: Reached end of input
11000000: system.cpu.memory: Attempting to commit [tid:0]
11000000: system.cpu.memory: Committing micro-ops for interrupt[tid:0]
11000000: system.cpu.memory: Sending instruction to WB: 0/1.1/1/3.3 pc: 0x10208 (addi)
11000000: system.cpu.memory: Completed inst: 0/1.1/1/3.3 pc: 0x10208 (addi)
11000000: system.cpu.memory: Log4GUI: memory: 11000000: 0: 10208: addi ra, ra, 1020
11000000: system.cpu.execute: Advancing FU[0]
11000000: system.cpu.execute: Advancing FU[1]
11000000: system.cpu.execute: Advancing FU[2]
11000000: system.cpu.execute: Advancing FU[3]
11000000: system.cpu.execute: Advancing FU[4]
11000000: system.cpu.execute: Advancing FU[5]
11000000: system.cpu.execute: Advancing FU[6]
11000000: system.cpu.execute: Advancing FU[7]
11000000: system.cpu.decode: Scheduled Thread: 0
11000000: system.cpu.execute.scoreboard0: Marking unpredictable result for inst: 0/1.1/1/4.4 pc: 0x1020c (flw) regIndex: 42 final numUnpredictableResults: 1
11000000: system.cpu.execute.scoreboard0: Marking up inst: 0/1.1/1/4.4 pc: 0x1020c (flw) regIndex: 42 final numResults: 1 returnCycle: 13
11000000: system.cpu.decode: Can pass to Execute: 0/1.1/1/4.4 pc: 0x1020c (flw)
11000000: system.cpu.decode: Log4GUI: decode: 11000000: 0: 1020c: flw fs1, 0(ra)
11000000: system.cpu.fetch1: No active threads available to fetch from
12000000: system.cpu.writeback: Received an instruction
12000000: system.cpu.writeback: Attempting to commit [tid:0]
12000000: system.cpu.writeback: Trying to commit canCommitInsts: 1
12000000: system.cpu.writeback: Committing inst: 0/1.1/1/3.3 pc: 0x10208 (addi)
12000000: global: ExecContext setting PC: (0x10208=>0x1020c).(0=>1)
12000000: system.cpu.writeback: Log4GUI: writeback: 12000000: 0: 10208: addi ra, ra, 1020
12000000: system.cpu.writeback: Completed inst: 0/1.1/1/3.3 pc: 0x10208 (addi)
12000000: system.cpu.writeback: Reached inst commit limit
12000000: system.cpu.writeback: Popping inputBuffer[0]
12000000: system.cpu.execute: Attempting to issue [tid:0]
12000000: system.cpu.execute: Trying to issue inst: 0/1.1/1/4.4 pc: 0x1020c (flw) to FU: 0
12000000: system.cpu.execute: Trying to issue mem inst: 0/1.1/1/4.4 pc: 0x1020c (flw)
12000000: system.cpu.execute: Issuing inst: 0/1.1/1/4.4 pc: 0x1020c (flw) into FU 0
12000000: system.cpu.execute: Pushing mem inst: 0/1.1/1/4.4 pc: 0x1020c (flw)
12000000: system.cpu.execute: Log4GUI: execute: 12000000: 0: 1020c: flw fs1, 0(ra): 0
12000000: system.cpu.execute: Advancing FU[0]
12000000: system.cpu.execute: Reached inst issue limit
12000000: system.cpu.execute: Stepping to next inst inputIndex: 1
12000000: system.cpu.execute: Attempting to commit [tid:0]
12000000: system.cpu.execute: Committing micro-ops for interrupt[tid:0]
12000000: system.cpu.execute: Trying to commit canCommitInsts: 1
12000000: system.cpu.execute: Committing inst: 0/1.1/1/4.4 pc: 0x1020c (flw)
12000000: global: ExecContext setting PC: (0x1020c=>0x10210).(0=>1)
12000000: system.cpu.execute: Initiating memRef inst: 0/1.1/1/4.4 pc: 0x1020c (flw)
12000000: system.cpu.execute: Sending mem inst to MEM: 0/1.1/1/4.4 pc: 0x1020c (flw)
12000000: system.cpu.execute: Unstalling 0 for inst 0/1.1/1/4.4
12000000: system.cpu.execute: Completed inst: 0/1.1/1/4.4 pc: 0x1020c (flw)
12000000: system.cpu.execute: Advancing FU[0]
12000000: system.cpu.execute: Advancing FU[1]
12000000: system.cpu.execute: Advancing FU[2]
12000000: system.cpu.execute: Advancing FU[3]
12000000: system.cpu.execute: Advancing FU[4]
12000000: system.cpu.execute: Advancing FU[5]
12000000: system.cpu.execute: Advancing FU[6]
12000000: system.cpu.execute: Advancing FU[7]
12000000: system.cpu.decode: Scheduled Thread: 0
12000000: system.cpu.decoder: Requesting bytes 0x00400313 from address 0x10210
12000000: system.cpu.decode: Offering MachInst to decoder addr: 0x10210
12000000: system.cpu.decoder: Decoding instruction 0x00400313 at address 0x10210
12000000: system.cpu.decoder: Decode: Decoded addi instruction: 0x400313
12000000: system.cpu.decode: decoder inst 0/1.1/1/5 pc: 0x10210 (addi)
12000000: system.cpu.decode: Instruction extracted from line 0/1.1/1 lineWidth: 512 output_index: 0 inputIndex: 16 pc: (0x10210=>0x10214).(0=>1) inst: 0/1.1/1/5 pc: 0x10210 (addi)
12000000: system.cpu.decode: Not attempting prediction for inst: 0/1.1/1/5 pc: 0x10210 (addi)
12000000: system.cpu.decode: Updated inputIndex value PC: (0x10200=>0x10204).(0=>1) inputIndex: 0x14 lineBaseAddr: 0x10200 lineWidth: 0x200
12000000: system.cpu.decode: Cannot pass to Execute: 0/1.1/1/5.5 pc: 0x10210 (addi)
12000000: system.cpu.decode: Log4GUI: decode: 12000000: 1: 10210: addi t1, zero, 4
12000000: system.cpu.fetch1: No active threads available to fetch from
13000000: system.cpu.memory: Issuing memref inst: 0/1.1/1/4.4 pc: 0x1020c (flw)
13000000: system.cpu.memory: Reached end of input
13000000: system.cpu.memory: Log4GUI: memory: 13000000: 0: 1020c: flw fs1, 0(ra)
13000000: system.cpu.execute: Advancing FU[0]
13000000: system.cpu.execute: Advancing FU[1]
13000000: system.cpu.execute: Advancing FU[2]
13000000: system.cpu.execute: Advancing FU[3]
13000000: system.cpu.execute: Advancing FU[4]
13000000: system.cpu.execute: Advancing FU[5]
13000000: system.cpu.execute: Advancing FU[6]
13000000: system.cpu.execute: Advancing FU[7]
13000000: system.cpu.decode: Scheduled Thread: 0
13000000: system.cpu.execute.scoreboard0: Marking up inst: 0/1.1/1/5.5 pc: 0x10210 (addi) regIndex: 6 final numResults: 1 returnCycle: 15
13000000: system.cpu.decode: Can pass to Execute: 0/1.1/1/5.5 pc: 0x10210 (addi)
13000000: system.cpu.decode: Log4GUI: decode: 13000000: 0: 10210: addi t1, zero, 4
13000000: system.cpu.fetch1: No active threads available to fetch from
14000000: system.cpu.memory: Log4GUI: memory: 14000000: 1: 1020c: flw fs1, 0(ra)
14000000: system.cpu.execute: Advancing FU[0]
14000000: system.cpu.execute: Advancing FU[1]
14000000: system.cpu.execute: Advancing FU[2]
14000000: system.cpu.execute: Advancing FU[3]
14000000: system.cpu.execute: Advancing FU[4]
14000000: system.cpu.execute: Advancing FU[5]
14000000: system.cpu.execute: Advancing FU[6]
14000000: system.cpu.execute: Advancing FU[7]
14000000: system.cpu.decode: No thread selected
14000000: system.cpu.decode: Scheduled Thread: -1
14000000: system.cpu.fetch1: No active threads available to fetch from
15000000: system.cpu.memory: Attempting to commit [tid:0]
15000000: system.cpu.memory: Committing micro-ops for interrupt[tid:0]
15000000: system.cpu.memory: Trying to commit mem response: 0/1.1/1/4.4 pc: 0x1020c (flw)
15000000: global: ExecContext setting PC: (0x1020c=>0x10210).(0=>1)
15000000: system.cpu.memory: tryToBranch before: (0x1020c=>0x10210).(0=>1) after: (0x1020c=>0x10210).(0=>1)
15000000: system.cpu.memory: Advancing current PC from: (0x1020c=>0x10210).(0=>1) to: (0x10210=>0x10214).(0=>1)
15000000: system.cpu.memory: Sending mem instruction to WB: 0/1.1/1/4.4 pc: 0x1020c (flw)
15000000: system.cpu.memory: Completed inst: 0/1.1/1/4.4 pc: 0x1020c (flw)
15000000: system.cpu.execute.scoreboard0: Clearing unpredictable result for inst: 0/1.1/1/4.4 pc: 0x1020c (flw) regIndex: 42 final numUnpredictableResults: 0
15000000: system.cpu.execute.scoreboard0: Clearing inst: 0/1.1/1/4.4 pc: 0x1020c (flw) regIndex: 42 final numResults: 0
15000000: system.cpu.execute: Attempting to issue [tid:0]
15000000: system.cpu.execute: Trying to issue inst: 0/1.1/1/5.5 pc: 0x10210 (addi) to FU: 0
15000000: system.cpu.execute: Issuing inst: 0/1.1/1/5.5 pc: 0x10210 (addi) into FU 0
15000000: system.cpu.execute: Log4GUI: execute: 15000000: 0: 10210: addi t1, zero, 4: 0
15000000: system.cpu.execute: Advancing FU[0]
15000000: system.cpu.execute: Reached inst issue limit
15000000: system.cpu.execute: Stepping to next inst inputIndex: 1
15000000: system.cpu.execute: Attempting to commit [tid:0]
15000000: system.cpu.execute: Committing micro-ops for interrupt[tid:0]
15000000: system.cpu.execute: Trying to commit canCommitInsts: 1
15000000: system.cpu.execute: Committing inst: 0/1.1/1/5.5 pc: 0x10210 (addi)
15000000: system.cpu.execute: Executing inst: 0/1.1/1/5.5 pc: 0x10210 (addi)
15000000: global: ExecContext setting PC: (0x10210=>0x10214).(0=>1)
15000000: system.cpu.execute: Executing nomemref inst: 0/1.1/1/5.5 pc: 0x10210 (addi)
15000000: system.cpu.execute: Sending inst to MEM: 0/1.1/1/5.5 pc: 0x10210 (addi)
15000000: system.cpu.execute: Unstalling 0 for inst 0/1.1/1/5.5
15000000: system.cpu.execute: Completed inst: 0/1.1/1/5.5 pc: 0x10210 (addi)
15000000: system.cpu.execute.scoreboard0: Clearing inst: 0/1.1/1/5.5 pc: 0x10210 (addi) regIndex: 6 final numResults: 0
15000000: system.cpu.execute: Advancing FU[0]
15000000: system.cpu.execute: Advancing FU[1]
15000000: system.cpu.execute: Advancing FU[2]
15000000: system.cpu.execute: Advancing FU[3]
15000000: system.cpu.execute: Advancing FU[4]
15000000: system.cpu.execute: Advancing FU[5]
15000000: system.cpu.execute: Advancing FU[6]
15000000: system.cpu.execute: Advancing FU[7]
15000000: system.cpu.decode: Scheduled Thread: 0
15000000: system.cpu.decoder: Requesting bytes 0x00001097 from address 0x10214
15000000: system.cpu.decode: Offering MachInst to decoder addr: 0x10214
15000000: system.cpu.decoder: Decoding instruction 0x00001097 at address 0x10214
15000000: system.cpu.decoder: Decode: Decoded auipc instruction: 0x1097
15000000: system.cpu.decode: decoder inst 0/1.1/1/6 pc: 0x10214 (auipc)
15000000: system.cpu.decode: Instruction extracted from line 0/1.1/1 lineWidth: 512 output_index: 0 inputIndex: 20 pc: (0x10214=>0x10218).(0=>1) inst: 0/1.1/1/6 pc: 0x10214 (auipc)
15000000: system.cpu.decode: Not attempting prediction for inst: 0/1.1/1/6 pc: 0x10214 (auipc)
15000000: system.cpu.decode: Updated inputIndex value PC: (0x10200=>0x10204).(0=>1) inputIndex: 0x18 lineBaseAddr: 0x10200 lineWidth: 0x200
15000000: system.cpu.decode: Cannot pass to Execute: 0/1.1/1/6.6 pc: 0x10214 (auipc)
15000000: system.cpu.decode: Log4GUI: decode: 15000000: 1: 10214: auipc ra, 1
15000000: system.cpu.fetch1: No active threads available to fetch from
16000000: system.cpu.writeback: Received an instruction
16000000: system.cpu.writeback: Attempting to commit [tid:0]
16000000: system.cpu.writeback: Trying to commit canCommitInsts: 1
16000000: system.cpu.writeback: Committing memory reference instruction: 0/1.1/1/4.4 pc: 0x1020c (flw)16000000: system.cpu.writeback: Committing inst: 0/1.1/1/4.4 pc: 0x1020c (flw)
16000000: system.cpu.writeback: Not executing inst 0/1.1/1/4.4 pc: 0x1020c (flw), it should have been already executed
16000000: system.cpu.writeback: Log4GUI: writeback: 16000000: 0: 1020c: flw fs1, 0(ra)
16000000: system.cpu.writeback: Completed inst: 0/1.1/1/4.4 pc: 0x1020c (flw)
16000000: system.cpu.writeback: Reached inst commit limit
16000000: system.cpu.writeback: Popping inputBuffer[0]
16000000: system.cpu.memory: Issuing inst: 0/1.1/1/5.5 pc: 0x10210 (addi)
16000000: system.cpu.memory: Reached end of input
16000000: system.cpu.memory: Attempting to commit [tid:0]
16000000: system.cpu.memory: Committing micro-ops for interrupt[tid:0]
16000000: system.cpu.memory: Sending instruction to WB: 0/1.1/1/5.5 pc: 0x10210 (addi)
16000000: system.cpu.memory: Completed inst: 0/1.1/1/5.5 pc: 0x10210 (addi)
16000000: system.cpu.memory: Log4GUI: memory: 16000000: 0: 10210: addi t1, zero, 4
16000000: system.cpu.execute: Advancing FU[0]
16000000: system.cpu.execute: Advancing FU[1]
16000000: system.cpu.execute: Advancing FU[2]
16000000: system.cpu.execute: Advancing FU[3]
16000000: system.cpu.execute: Advancing FU[4]
16000000: system.cpu.execute: Advancing FU[5]
16000000: system.cpu.execute: Advancing FU[6]
16000000: system.cpu.execute: Advancing FU[7]
16000000: system.cpu.decode: Scheduled Thread: 0
16000000: system.cpu.execute.scoreboard0: Marking up inst: 0/1.1/1/6.6 pc: 0x10214 (auipc) regIndex: 1 final numResults: 1 returnCycle: 18
16000000: system.cpu.decode: Can pass to Execute: 0/1.1/1/6.6 pc: 0x10214 (auipc)
16000000: system.cpu.decode: Log4GUI: decode: 16000000: 0: 10214: auipc ra, 1
16000000: system.cpu.fetch1: No active threads available to fetch from
17000000: system.cpu.writeback: Received an instruction
17000000: system.cpu.writeback: Attempting to commit [tid:0]
17000000: system.cpu.writeback: Trying to commit canCommitInsts: 1
17000000: system.cpu.writeback: Committing inst: 0/1.1/1/5.5 pc: 0x10210 (addi)
17000000: global: ExecContext setting PC: (0x10210=>0x10214).(0=>1)
17000000: system.cpu.writeback: Log4GUI: writeback: 17000000: 0: 10210: addi t1, zero, 4
17000000: system.cpu.writeback: Completed inst: 0/1.1/1/5.5 pc: 0x10210 (addi)
17000000: system.cpu.writeback: Reached inst commit limit
17000000: system.cpu.writeback: Popping inputBuffer[0]
17000000: system.cpu.execute: Attempting to issue [tid:0]
17000000: system.cpu.execute: Trying to issue inst: 0/1.1/1/6.6 pc: 0x10214 (auipc) to FU: 0
17000000: system.cpu.execute: Issuing inst: 0/1.1/1/6.6 pc: 0x10214 (auipc) into FU 0
17000000: system.cpu.execute: Log4GUI: execute: 17000000: 0: 10214: auipc ra, 1: 0
17000000: system.cpu.execute: Advancing FU[0]
17000000: system.cpu.execute: Reached inst issue limit
17000000: system.cpu.execute: Stepping to next inst inputIndex: 1
17000000: system.cpu.execute: Attempting to commit [tid:0]
17000000: system.cpu.execute: Committing micro-ops for interrupt[tid:0]
17000000: system.cpu.execute: Trying to commit canCommitInsts: 1
17000000: system.cpu.execute: Committing inst: 0/1.1/1/6.6 pc: 0x10214 (auipc)
17000000: system.cpu.execute: Executing inst: 0/1.1/1/6.6 pc: 0x10214 (auipc)
17000000: global: ExecContext setting PC: (0x10214=>0x10218).(0=>1)
17000000: system.cpu.execute: Executing nomemref inst: 0/1.1/1/6.6 pc: 0x10214 (auipc)
17000000: system.cpu.execute: Sending inst to MEM: 0/1.1/1/6.6 pc: 0x10214 (auipc)
17000000: system.cpu.execute: Unstalling 0 for inst 0/1.1/1/6.6
17000000: system.cpu.execute: Completed inst: 0/1.1/1/6.6 pc: 0x10214 (auipc)
17000000: system.cpu.execute.scoreboard0: Clearing inst: 0/1.1/1/6.6 pc: 0x10214 (auipc) regIndex: 1 final numResults: 0
17000000: system.cpu.execute: Advancing FU[0]
17000000: system.cpu.execute: Advancing FU[1]
17000000: system.cpu.execute: Advancing FU[2]
17000000: system.cpu.execute: Advancing FU[3]
17000000: system.cpu.execute: Advancing FU[4]
17000000: system.cpu.execute: Advancing FU[5]
17000000: system.cpu.execute: Advancing FU[6]
17000000: system.cpu.execute: Advancing FU[7]
17000000: system.cpu.decode: Scheduled Thread: 0
17000000: system.cpu.decoder: Requesting bytes 0x3ec08093 from address 0x10218
17000000: system.cpu.decode: Offering MachInst to decoder addr: 0x10218
17000000: system.cpu.decoder: Decoding instruction 0x3ec08093 at address 0x10218
17000000: system.cpu.decoder: Decode: Decoded addi instruction: 0x3ec08093
17000000: system.cpu.decode: decoder inst 0/1.1/1/7 pc: 0x10218 (addi)
17000000: system.cpu.decode: Instruction extracted from line 0/1.1/1 lineWidth: 512 output_index: 0 inputIndex: 24 pc: (0x10218=>0x1021c).(0=>1) inst: 0/1.1/1/7 pc: 0x10218 (addi)
17000000: system.cpu.decode: Not attempting prediction for inst: 0/1.1/1/7 pc: 0x10218 (addi)
17000000: system.cpu.decode: Updated inputIndex value PC: (0x10200=>0x10204).(0=>1) inputIndex: 0x1c lineBaseAddr: 0x10200 lineWidth: 0x200
17000000: system.cpu.decode: Cannot pass to Execute: 0/1.1/1/7.7 pc: 0x10218 (addi)
17000000: system.cpu.decode: Log4GUI: decode: 17000000: 1: 10218: addi ra, ra, 1004
17000000: system.cpu.fetch1: No active threads available to fetch from
18000000: system.cpu.memory: Issuing inst: 0/1.1/1/6.6 pc: 0x10214 (auipc)
18000000: system.cpu.memory: Reached end of input
18000000: system.cpu.memory: Attempting to commit [tid:0]
18000000: system.cpu.memory: Committing micro-ops for interrupt[tid:0]
18000000: system.cpu.memory: Sending instruction to WB: 0/1.1/1/6.6 pc: 0x10214 (auipc)
18000000: system.cpu.memory: Completed inst: 0/1.1/1/6.6 pc: 0x10214 (auipc)
18000000: system.cpu.memory: Log4GUI: memory: 18000000: 0: 10214: auipc ra, 1
18000000: system.cpu.execute: Advancing FU[0]
18000000: system.cpu.execute: Advancing FU[1]
18000000: system.cpu.execute: Advancing FU[2]
18000000: system.cpu.execute: Advancing FU[3]
18000000: system.cpu.execute: Advancing FU[4]
18000000: system.cpu.execute: Advancing FU[5]
18000000: system.cpu.execute: Advancing FU[6]
18000000: system.cpu.execute: Advancing FU[7]
18000000: system.cpu.decode: Scheduled Thread: 0
18000000: system.cpu.execute.scoreboard0: Marking up inst: 0/1.1/1/7.7 pc: 0x10218 (addi) regIndex: 1 final numResults: 1 returnCycle: 20
18000000: system.cpu.decode: Can pass to Execute: 0/1.1/1/7.7 pc: 0x10218 (addi)
18000000: system.cpu.decode: Log4GUI: decode: 18000000: 0: 10218: addi ra, ra, 1004
18000000: system.cpu.fetch1: No active threads available to fetch from
19000000: system.cpu.writeback: Received an instruction
19000000: system.cpu.writeback: Attempting to commit [tid:0]
19000000: system.cpu.writeback: Trying to commit canCommitInsts: 1
19000000: system.cpu.writeback: Committing inst: 0/1.1/1/6.6 pc: 0x10214 (auipc)
19000000: global: ExecContext setting PC: (0x10214=>0x10218).(0=>1)
19000000: system.cpu.writeback: Log4GUI: writeback: 19000000: 0: 10214: auipc ra, 1
19000000: system.cpu.writeback: Completed inst: 0/1.1/1/6.6 pc: 0x10214 (auipc)
19000000: system.cpu.writeback: Reached inst commit limit
19000000: system.cpu.writeback: Popping inputBuffer[0]
19000000: system.cpu.execute: Attempting to issue [tid:0]
19000000: system.cpu.execute: Trying to issue inst: 0/1.1/1/7.7 pc: 0x10218 (addi) to FU: 0
19000000: system.cpu.execute: Issuing inst: 0/1.1/1/7.7 pc: 0x10218 (addi) into FU 0
19000000: system.cpu.execute: Log4GUI: execute: 19000000: 0: 10218: addi ra, ra, 1004: 0
19000000: system.cpu.execute: Advancing FU[0]
19000000: system.cpu.execute: Reached inst issue limit
19000000: system.cpu.execute: Stepping to next inst inputIndex: 1
19000000: system.cpu.execute: Attempting to commit [tid:0]
19000000: system.cpu.execute: Committing micro-ops for interrupt[tid:0]
19000000: system.cpu.execute: Trying to commit canCommitInsts: 1
19000000: system.cpu.execute: Committing inst: 0/1.1/1/7.7 pc: 0x10218 (addi)
19000000: system.cpu.execute: Executing inst: 0/1.1/1/7.7 pc: 0x10218 (addi)
19000000: global: ExecContext setting PC: (0x10218=>0x1021c).(0=>1)
19000000: system.cpu.execute: Executing nomemref inst: 0/1.1/1/7.7 pc: 0x10218 (addi)
19000000: system.cpu.execute: Sending inst to MEM: 0/1.1/1/7.7 pc: 0x10218 (addi)
19000000: system.cpu.execute: Unstalling 0 for inst 0/1.1/1/7.7
19000000: system.cpu.execute: Completed inst: 0/1.1/1/7.7 pc: 0x10218 (addi)
19000000: system.cpu.execute.scoreboard0: Clearing inst: 0/1.1/1/7.7 pc: 0x10218 (addi) regIndex: 1 final numResults: 0
19000000: system.cpu.execute: Advancing FU[0]
19000000: system.cpu.execute: Advancing FU[1]
19000000: system.cpu.execute: Advancing FU[2]
19000000: system.cpu.execute: Advancing FU[3]
19000000: system.cpu.execute: Advancing FU[4]
19000000: system.cpu.execute: Advancing FU[5]
19000000: system.cpu.execute: Advancing FU[6]
19000000: system.cpu.execute: Advancing FU[7]
19000000: system.cpu.decode: Scheduled Thread: 0
19000000: system.cpu.decoder: Requesting bytes 0x00001117 from address 0x1021c
19000000: system.cpu.decode: Offering MachInst to decoder addr: 0x1021c
19000000: system.cpu.decoder: Decoding instruction 0x00001117 at address 0x1021c
19000000: system.cpu.decoder: Decode: Decoded auipc instruction: 0x1117
19000000: system.cpu.decode: decoder inst 0/1.1/1/8 pc: 0x1021c (auipc)
19000000: system.cpu.decode: Instruction extracted from line 0/1.1/1 lineWidth: 512 output_index: 0 inputIndex: 28 pc: (0x1021c=>0x10220).(0=>1) inst: 0/1.1/1/8 pc: 0x1021c (auipc)
19000000: system.cpu.decode: Not attempting prediction for inst: 0/1.1/1/8 pc: 0x1021c (auipc)
19000000: system.cpu.decode: Updated inputIndex value PC: (0x10200=>0x10204).(0=>1) inputIndex: 0x20 lineBaseAddr: 0x10200 lineWidth: 0x200
19000000: system.cpu.decode: Cannot pass to Execute: 0/1.1/1/8.8 pc: 0x1021c (auipc)
19000000: system.cpu.decode: Log4GUI: decode: 19000000: 1: 1021c: auipc sp, 1
19000000: system.cpu.fetch1: No active threads available to fetch from
20000000: system.cpu.memory: Issuing inst: 0/1.1/1/7.7 pc: 0x10218 (addi)
20000000: system.cpu.memory: Reached end of input
20000000: system.cpu.memory: Attempting to commit [tid:0]
20000000: system.cpu.memory: Committing micro-ops for interrupt[tid:0]
20000000: system.cpu.memory: Sending instruction to WB: 0/1.1/1/7.7 pc: 0x10218 (addi)
20000000: system.cpu.memory: Completed inst: 0/1.1/1/7.7 pc: 0x10218 (addi)
20000000: system.cpu.memory: Log4GUI: memory: 20000000: 0: 10218: addi ra, ra, 1004
20000000: system.cpu.execute: Advancing FU[0]
20000000: system.cpu.execute: Advancing FU[1]
20000000: system.cpu.execute: Advancing FU[2]
20000000: system.cpu.execute: Advancing FU[3]
20000000: system.cpu.execute: Advancing FU[4]
20000000: system.cpu.execute: Advancing FU[5]
20000000: system.cpu.execute: Advancing FU[6]
20000000: system.cpu.execute: Advancing FU[7]
20000000: system.cpu.decode: Scheduled Thread: 0
20000000: system.cpu.execute.scoreboard0: Marking up inst: 0/1.1/1/8.8 pc: 0x1021c (auipc) regIndex: 2 final numResults: 1 returnCycle: 22
20000000: system.cpu.decode: Can pass to Execute: 0/1.1/1/8.8 pc: 0x1021c (auipc)
20000000: system.cpu.decode: Log4GUI: decode: 20000000: 0: 1021c: auipc sp, 1
20000000: system.cpu.fetch1: No active threads available to fetch from
21000000: system.cpu.writeback: Received an instruction
21000000: system.cpu.writeback: Attempting to commit [tid:0]
21000000: system.cpu.writeback: Trying to commit canCommitInsts: 1
21000000: system.cpu.writeback: Committing inst: 0/1.1/1/7.7 pc: 0x10218 (addi)
21000000: global: ExecContext setting PC: (0x10218=>0x1021c).(0=>1)
21000000: system.cpu.writeback: Log4GUI: writeback: 21000000: 0: 10218: addi ra, ra, 1004
21000000: system.cpu.writeback: Completed inst: 0/1.1/1/7.7 pc: 0x10218 (addi)
21000000: system.cpu.writeback: Reached inst commit limit
21000000: system.cpu.writeback: Popping inputBuffer[0]
21000000: system.cpu.execute: Attempting to issue [tid:0]
21000000: system.cpu.execute: Trying to issue inst: 0/1.1/1/8.8 pc: 0x1021c (auipc) to FU: 0
21000000: system.cpu.execute: Issuing inst: 0/1.1/1/8.8 pc: 0x1021c (auipc) into FU 0
21000000: system.cpu.execute: Log4GUI: execute: 21000000: 0: 1021c: auipc sp, 1: 0
21000000: system.cpu.execute: Advancing FU[0]
21000000: system.cpu.execute: Reached inst issue limit
21000000: system.cpu.execute: Stepping to next inst inputIndex: 1
21000000: system.cpu.execute: Attempting to commit [tid:0]
21000000: system.cpu.execute: Committing micro-ops for interrupt[tid:0]
21000000: system.cpu.execute: Trying to commit canCommitInsts: 1
21000000: system.cpu.execute: Committing inst: 0/1.1/1/8.8 pc: 0x1021c (auipc)
21000000: system.cpu.execute: Executing inst: 0/1.1/1/8.8 pc: 0x1021c (auipc)
21000000: global: ExecContext setting PC: (0x1021c=>0x10220).(0=>1)
21000000: system.cpu.execute: Executing nomemref inst: 0/1.1/1/8.8 pc: 0x1021c (auipc)
21000000: system.cpu.execute: Sending inst to MEM: 0/1.1/1/8.8 pc: 0x1021c (auipc)
21000000: system.cpu.execute: Unstalling 0 for inst 0/1.1/1/8.8
21000000: system.cpu.execute: Completed inst: 0/1.1/1/8.8 pc: 0x1021c (auipc)
21000000: system.cpu.execute.scoreboard0: Clearing inst: 0/1.1/1/8.8 pc: 0x1021c (auipc) regIndex: 2 final numResults: 0
21000000: system.cpu.execute: Advancing FU[0]
21000000: system.cpu.execute: Advancing FU[1]
21000000: system.cpu.execute: Advancing FU[2]
21000000: system.cpu.execute: Advancing FU[3]
21000000: system.cpu.execute: Advancing FU[4]
21000000: system.cpu.execute: Advancing FU[5]
21000000: system.cpu.execute: Advancing FU[6]
21000000: system.cpu.execute: Advancing FU[7]
21000000: system.cpu.decode: Scheduled Thread: 0
21000000: system.cpu.decoder: Requesting bytes 0x3f410113 from address 0x10220
21000000: system.cpu.decode: Offering MachInst to decoder addr: 0x10220
21000000: system.cpu.decoder: Decoding instruction 0x3f410113 at address 0x10220
21000000: system.cpu.decoder: Decode: Decoded addi instruction: 0x3f410113
21000000: system.cpu.decode: decoder inst 0/1.1/1/9 pc: 0x10220 (addi)
21000000: system.cpu.decode: Instruction extracted from line 0/1.1/1 lineWidth: 512 output_index: 0 inputIndex: 32 pc: (0x10220=>0x10224).(0=>1) inst: 0/1.1/1/9 pc: 0x10220 (addi)
21000000: system.cpu.decode: Not attempting prediction for inst: 0/1.1/1/9 pc: 0x10220 (addi)
21000000: system.cpu.decode: Updated inputIndex value PC: (0x10200=>0x10204).(0=>1) inputIndex: 0x24 lineBaseAddr: 0x10200 lineWidth: 0x200
21000000: system.cpu.decode: Cannot pass to Execute: 0/1.1/1/9.9 pc: 0x10220 (addi)
21000000: system.cpu.decode: Log4GUI: decode: 21000000: 1: 10220: addi sp, sp, 1012
21000000: system.cpu.fetch1: No active threads available to fetch from
22000000: system.cpu.memory: Issuing inst: 0/1.1/1/8.8 pc: 0x1021c (auipc)
22000000: system.cpu.memory: Reached end of input
22000000: system.cpu.memory: Attempting to commit [tid:0]
22000000: system.cpu.memory: Committing micro-ops for interrupt[tid:0]
22000000: system.cpu.memory: Sending instruction to WB: 0/1.1/1/8.8 pc: 0x1021c (auipc)
22000000: system.cpu.memory: Completed inst: 0/1.1/1/8.8 pc: 0x1021c (auipc)
22000000: system.cpu.memory: Log4GUI: memory: 22000000: 0: 1021c: auipc sp, 1
22000000: system.cpu.execute: Advancing FU[0]
22000000: system.cpu.execute: Advancing FU[1]
22000000: system.cpu.execute: Advancing FU[2]
22000000: system.cpu.execute: Advancing FU[3]
22000000: system.cpu.execute: Advancing FU[4]
22000000: system.cpu.execute: Advancing FU[5]
22000000: system.cpu.execute: Advancing FU[6]
22000000: system.cpu.execute: Advancing FU[7]
22000000: system.cpu.decode: Scheduled Thread: 0
22000000: system.cpu.execute.scoreboard0: Marking up inst: 0/1.1/1/9.9 pc: 0x10220 (addi) regIndex: 2 final numResults: 1 returnCycle: 24
22000000: system.cpu.decode: Can pass to Execute: 0/1.1/1/9.9 pc: 0x10220 (addi)
22000000: system.cpu.decode: Log4GUI: decode: 22000000: 0: 10220: addi sp, sp, 1012
22000000: system.cpu.fetch1: No active threads available to fetch from
23000000: system.cpu.writeback: Received an instruction
23000000: system.cpu.writeback: Attempting to commit [tid:0]
23000000: system.cpu.writeback: Trying to commit canCommitInsts: 1
23000000: system.cpu.writeback: Committing inst: 0/1.1/1/8.8 pc: 0x1021c (auipc)
23000000: global: ExecContext setting PC: (0x1021c=>0x10220).(0=>1)
23000000: system.cpu.writeback: Log4GUI: writeback: 23000000: 0: 1021c: auipc sp, 1
23000000: system.cpu.writeback: Completed inst: 0/1.1/1/8.8 pc: 0x1021c (auipc)
23000000: system.cpu.writeback: Reached inst commit limit
23000000: system.cpu.writeback: Popping inputBuffer[0]
23000000: system.cpu.execute: Attempting to issue [tid:0]
23000000: system.cpu.execute: Trying to issue inst: 0/1.1/1/9.9 pc: 0x10220 (addi) to FU: 0
23000000: system.cpu.execute: Issuing inst: 0/1.1/1/9.9 pc: 0x10220 (addi) into FU 0
23000000: system.cpu.execute: Log4GUI: execute: 23000000: 0: 10220: addi sp, sp, 1012: 0
23000000: system.cpu.execute: Advancing FU[0]
23000000: system.cpu.execute: Reached inst issue limit
23000000: system.cpu.execute: Stepping to next inst inputIndex: 1
23000000: system.cpu.execute: Attempting to commit [tid:0]
23000000: system.cpu.execute: Committing micro-ops for interrupt[tid:0]
23000000: system.cpu.execute: Trying to commit canCommitInsts: 1
23000000: system.cpu.execute: Committing inst: 0/1.1/1/9.9 pc: 0x10220 (addi)
23000000: system.cpu.execute: Executing inst: 0/1.1/1/9.9 pc: 0x10220 (addi)
23000000: global: ExecContext setting PC: (0x10220=>0x10224).(0=>1)
23000000: system.cpu.execute: Executing nomemref inst: 0/1.1/1/9.9 pc: 0x10220 (addi)
23000000: system.cpu.execute: Sending inst to MEM: 0/1.1/1/9.9 pc: 0x10220 (addi)
23000000: system.cpu.execute: Unstalling 0 for inst 0/1.1/1/9.9
23000000: system.cpu.execute: Completed inst: 0/1.1/1/9.9 pc: 0x10220 (addi)
23000000: system.cpu.execute.scoreboard0: Clearing inst: 0/1.1/1/9.9 pc: 0x10220 (addi) regIndex: 2 final numResults: 0
23000000: system.cpu.execute: Advancing FU[0]
23000000: system.cpu.execute: Advancing FU[1]
23000000: system.cpu.execute: Advancing FU[2]
23000000: system.cpu.execute: Advancing FU[3]
23000000: system.cpu.execute: Advancing FU[4]
23000000: system.cpu.execute: Advancing FU[5]
23000000: system.cpu.execute: Advancing FU[6]
23000000: system.cpu.execute: Advancing FU[7]
23000000: system.cpu.decode: Scheduled Thread: 0
23000000: system.cpu.decoder: Requesting bytes 0x00001197 from address 0x10224
23000000: system.cpu.decode: Offering MachInst to decoder addr: 0x10224
23000000: system.cpu.decoder: Decoding instruction 0x00001197 at address 0x10224
23000000: system.cpu.decoder: Decode: Decoded auipc instruction: 0x1197
23000000: system.cpu.decode: decoder inst 0/1.1/1/10 pc: 0x10224 (auipc)
23000000: system.cpu.decode: Instruction extracted from line 0/1.1/1 lineWidth: 512 output_index: 0 inputIndex: 36 pc: (0x10224=>0x10228).(0=>1) inst: 0/1.1/1/10 pc: 0x10224 (auipc)
23000000: system.cpu.decode: Not attempting prediction for inst: 0/1.1/1/10 pc: 0x10224 (auipc)
23000000: system.cpu.decode: Updated inputIndex value PC: (0x10200=>0x10204).(0=>1) inputIndex: 0x28 lineBaseAddr: 0x10200 lineWidth: 0x200
23000000: system.cpu.decode: Cannot pass to Execute: 0/1.1/1/10.10 pc: 0x10224 (auipc)
23000000: system.cpu.decode: Log4GUI: decode: 23000000: 1: 10224: auipc gp, 1
23000000: system.cpu.fetch1: No active threads available to fetch from
24000000: system.cpu.memory: Issuing inst: 0/1.1/1/9.9 pc: 0x10220 (addi)
24000000: system.cpu.memory: Reached end of input
24000000: system.cpu.memory: Attempting to commit [tid:0]
24000000: system.cpu.memory: Committing micro-ops for interrupt[tid:0]
24000000: system.cpu.memory: Sending instruction to WB: 0/1.1/1/9.9 pc: 0x10220 (addi)
24000000: system.cpu.memory: Completed inst: 0/1.1/1/9.9 pc: 0x10220 (addi)
24000000: system.cpu.memory: Log4GUI: memory: 24000000: 0: 10220: addi sp, sp, 1012
24000000: system.cpu.execute: Advancing FU[0]
24000000: system.cpu.execute: Advancing FU[1]
24000000: system.cpu.execute: Advancing FU[2]
24000000: system.cpu.execute: Advancing FU[3]
24000000: system.cpu.execute: Advancing FU[4]
24000000: system.cpu.execute: Advancing FU[5]
24000000: system.cpu.execute: Advancing FU[6]
24000000: system.cpu.execute: Advancing FU[7]
24000000: system.cpu.decode: Scheduled Thread: 0
24000000: system.cpu.execute.scoreboard0: Marking up inst: 0/1.1/1/10.10 pc: 0x10224 (auipc) regIndex: 3 final numResults: 1 returnCycle: 26
24000000: system.cpu.decode: Can pass to Execute: 0/1.1/1/10.10 pc: 0x10224 (auipc)
24000000: system.cpu.decode: Log4GUI: decode: 24000000: 0: 10224: auipc gp, 1
24000000: system.cpu.fetch1: No active threads available to fetch from
25000000: system.cpu.writeback: Received an instruction
25000000: system.cpu.writeback: Attempting to commit [tid:0]
25000000: system.cpu.writeback: Trying to commit canCommitInsts: 1
25000000: system.cpu.writeback: Committing inst: 0/1.1/1/9.9 pc: 0x10220 (addi)
25000000: global: ExecContext setting PC: (0x10220=>0x10224).(0=>1)
25000000: system.cpu.writeback: Log4GUI: writeback: 25000000: 0: 10220: addi sp, sp, 1012
25000000: system.cpu.writeback: Completed inst: 0/1.1/1/9.9 pc: 0x10220 (addi)
25000000: system.cpu.writeback: Reached inst commit limit
25000000: system.cpu.writeback: Popping inputBuffer[0]
25000000: system.cpu.execute: Attempting to issue [tid:0]
25000000: system.cpu.execute: Trying to issue inst: 0/1.1/1/10.10 pc: 0x10224 (auipc) to FU: 0
25000000: system.cpu.execute: Issuing inst: 0/1.1/1/10.10 pc: 0x10224 (auipc) into FU 0
25000000: system.cpu.execute: Log4GUI: execute: 25000000: 0: 10224: auipc gp, 1: 0
25000000: system.cpu.execute: Advancing FU[0]
25000000: system.cpu.execute: Reached inst issue limit
25000000: system.cpu.execute: Stepping to next inst inputIndex: 1
25000000: system.cpu.execute: Attempting to commit [tid:0]
25000000: system.cpu.execute: Committing micro-ops for interrupt[tid:0]
25000000: system.cpu.execute: Trying to commit canCommitInsts: 1
25000000: system.cpu.execute: Committing inst: 0/1.1/1/10.10 pc: 0x10224 (auipc)
25000000: system.cpu.execute: Executing inst: 0/1.1/1/10.10 pc: 0x10224 (auipc)
25000000: global: ExecContext setting PC: (0x10224=>0x10228).(0=>1)
25000000: system.cpu.execute: Executing nomemref inst: 0/1.1/1/10.10 pc: 0x10224 (auipc)
25000000: system.cpu.execute: Sending inst to MEM: 0/1.1/1/10.10 pc: 0x10224 (auipc)
25000000: system.cpu.execute: Unstalling 0 for inst 0/1.1/1/10.10
25000000: system.cpu.execute: Completed inst: 0/1.1/1/10.10 pc: 0x10224 (auipc)
25000000: system.cpu.execute.scoreboard0: Clearing inst: 0/1.1/1/10.10 pc: 0x10224 (auipc) regIndex: 3 final numResults: 0
25000000: system.cpu.execute: Advancing FU[0]
25000000: system.cpu.execute: Advancing FU[1]
25000000: system.cpu.execute: Advancing FU[2]
25000000: system.cpu.execute: Advancing FU[3]
25000000: system.cpu.execute: Advancing FU[4]
25000000: system.cpu.execute: Advancing FU[5]
25000000: system.cpu.execute: Advancing FU[6]
25000000: system.cpu.execute: Advancing FU[7]
25000000: system.cpu.decode: Scheduled Thread: 0
25000000: system.cpu.decoder: Requesting bytes 0x3fc18193 from address 0x10228
25000000: system.cpu.decode: Offering MachInst to decoder addr: 0x10228
25000000: system.cpu.decoder: Decoding instruction 0x3fc18193 at address 0x10228
25000000: system.cpu.decoder: Decode: Decoded addi instruction: 0x3fc18193
25000000: system.cpu.decode: decoder inst 0/1.1/1/11 pc: 0x10228 (addi)
25000000: system.cpu.decode: Instruction extracted from line 0/1.1/1 lineWidth: 512 output_index: 0 inputIndex: 40 pc: (0x10228=>0x1022c).(0=>1) inst: 0/1.1/1/11 pc: 0x10228 (addi)
25000000: system.cpu.decode: Not attempting prediction for inst: 0/1.1/1/11 pc: 0x10228 (addi)
25000000: system.cpu.decode: Updated inputIndex value PC: (0x10200=>0x10204).(0=>1) inputIndex: 0x2c lineBaseAddr: 0x10200 lineWidth: 0x200
25000000: system.cpu.decode: Cannot pass to Execute: 0/1.1/1/11.11 pc: 0x10228 (addi)
25000000: system.cpu.decode: Log4GUI: decode: 25000000: 1: 10228: addi gp, gp, 1020
25000000: system.cpu.fetch1: No active threads available to fetch from
26000000: system.cpu.memory: Issuing inst: 0/1.1/1/10.10 pc: 0x10224 (auipc)
26000000: system.cpu.memory: Reached end of input
26000000: system.cpu.memory: Attempting to commit [tid:0]
26000000: system.cpu.memory: Committing micro-ops for interrupt[tid:0]
26000000: system.cpu.memory: Sending instruction to WB: 0/1.1/1/10.10 pc: 0x10224 (auipc)
26000000: system.cpu.memory: Completed inst: 0/1.1/1/10.10 pc: 0x10224 (auipc)
26000000: system.cpu.memory: Log4GUI: memory: 26000000: 0: 10224: auipc gp, 1
26000000: system.cpu.execute: Advancing FU[0]
26000000: system.cpu.execute: Advancing FU[1]
26000000: system.cpu.execute: Advancing FU[2]
26000000: system.cpu.execute: Advancing FU[3]
26000000: system.cpu.execute: Advancing FU[4]
26000000: system.cpu.execute: Advancing FU[5]
26000000: system.cpu.execute: Advancing FU[6]
26000000: system.cpu.execute: Advancing FU[7]
26000000: system.cpu.decode: Scheduled Thread: 0
26000000: system.cpu.execute.scoreboard0: Marking up inst: 0/1.1/1/11.11 pc: 0x10228 (addi) regIndex: 3 final numResults: 1 returnCycle: 28
26000000: system.cpu.decode: Can pass to Execute: 0/1.1/1/11.11 pc: 0x10228 (addi)
26000000: system.cpu.decode: Log4GUI: decode: 26000000: 0: 10228: addi gp, gp, 1020
26000000: system.cpu.fetch1: No active threads available to fetch from
27000000: system.cpu.writeback: Received an instruction
27000000: system.cpu.writeback: Attempting to commit [tid:0]
27000000: system.cpu.writeback: Trying to commit canCommitInsts: 1
27000000: system.cpu.writeback: Committing inst: 0/1.1/1/10.10 pc: 0x10224 (auipc)
27000000: global: ExecContext setting PC: (0x10224=>0x10228).(0=>1)
27000000: system.cpu.writeback: Log4GUI: writeback: 27000000: 0: 10224: auipc gp, 1
27000000: system.cpu.writeback: Completed inst: 0/1.1/1/10.10 pc: 0x10224 (auipc)
27000000: system.cpu.writeback: Reached inst commit limit
27000000: system.cpu.writeback: Popping inputBuffer[0]
27000000: system.cpu.execute: Attempting to issue [tid:0]
27000000: system.cpu.execute: Trying to issue inst: 0/1.1/1/11.11 pc: 0x10228 (addi) to FU: 0
27000000: system.cpu.execute: Issuing inst: 0/1.1/1/11.11 pc: 0x10228 (addi) into FU 0
27000000: system.cpu.execute: Log4GUI: execute: 27000000: 0: 10228: addi gp, gp, 1020: 0
27000000: system.cpu.execute: Advancing FU[0]
27000000: system.cpu.execute: Reached inst issue limit
27000000: system.cpu.execute: Stepping to next inst inputIndex: 1
27000000: system.cpu.execute: Attempting to commit [tid:0]
27000000: system.cpu.execute: Committing micro-ops for interrupt[tid:0]
27000000: system.cpu.execute: Trying to commit canCommitInsts: 1
27000000: system.cpu.execute: Committing inst: 0/1.1/1/11.11 pc: 0x10228 (addi)
27000000: system.cpu.execute: Executing inst: 0/1.1/1/11.11 pc: 0x10228 (addi)
27000000: global: ExecContext setting PC: (0x10228=>0x1022c).(0=>1)
27000000: system.cpu.execute: Executing nomemref inst: 0/1.1/1/11.11 pc: 0x10228 (addi)
27000000: system.cpu.execute: Sending inst to MEM: 0/1.1/1/11.11 pc: 0x10228 (addi)
27000000: system.cpu.execute: Unstalling 0 for inst 0/1.1/1/11.11
27000000: system.cpu.execute: Completed inst: 0/1.1/1/11.11 pc: 0x10228 (addi)
27000000: system.cpu.execute.scoreboard0: Clearing inst: 0/1.1/1/11.11 pc: 0x10228 (addi) regIndex: 3 final numResults: 0
27000000: system.cpu.execute: Advancing FU[0]
27000000: system.cpu.execute: Advancing FU[1]
27000000: system.cpu.execute: Advancing FU[2]
27000000: system.cpu.execute: Advancing FU[3]
27000000: system.cpu.execute: Advancing FU[4]
27000000: system.cpu.execute: Advancing FU[5]
27000000: system.cpu.execute: Advancing FU[6]
27000000: system.cpu.execute: Advancing FU[7]
27000000: system.cpu.decode: Scheduled Thread: 0
27000000: system.cpu.decoder: Requesting bytes 0x00001217 from address 0x1022c
27000000: system.cpu.decode: Offering MachInst to decoder addr: 0x1022c
27000000: system.cpu.decoder: Decoding instruction 0x00001217 at address 0x1022c
27000000: system.cpu.decoder: Decode: Decoded auipc instruction: 0x1217
27000000: system.cpu.decode: decoder inst 0/1.1/1/12 pc: 0x1022c (auipc)
27000000: system.cpu.decode: Instruction extracted from line 0/1.1/1 lineWidth: 512 output_index: 0 inputIndex: 44 pc: (0x1022c=>0x10230).(0=>1) inst: 0/1.1/1/12 pc: 0x1022c (auipc)
27000000: system.cpu.decode: Not attempting prediction for inst: 0/1.1/1/12 pc: 0x1022c (auipc)
27000000: system.cpu.decode: Updated inputIndex value PC: (0x10200=>0x10204).(0=>1) inputIndex: 0x30 lineBaseAddr: 0x10200 lineWidth: 0x200
27000000: system.cpu.decode: Cannot pass to Execute: 0/1.1/1/12.12 pc: 0x1022c (auipc)
27000000: system.cpu.decode: Log4GUI: decode: 27000000: 1: 1022c: auipc tp, 1
27000000: system.cpu.fetch1: No active threads available to fetch from
28000000: system.cpu.memory: Issuing inst: 0/1.1/1/11.11 pc: 0x10228 (addi)
28000000: system.cpu.memory: Reached end of input
28000000: system.cpu.memory: Attempting to commit [tid:0]
28000000: system.cpu.memory: Committing micro-ops for interrupt[tid:0]
28000000: system.cpu.memory: Sending instruction to WB: 0/1.1/1/11.11 pc: 0x10228 (addi)
28000000: system.cpu.memory: Completed inst: 0/1.1/1/11.11 pc: 0x10228 (addi)
28000000: system.cpu.memory: Log4GUI: memory: 28000000: 0: 10228: addi gp, gp, 1020
28000000: system.cpu.execute: Advancing FU[0]
28000000: system.cpu.execute: Advancing FU[1]
28000000: system.cpu.execute: Advancing FU[2]
28000000: system.cpu.execute: Advancing FU[3]
28000000: system.cpu.execute: Advancing FU[4]
28000000: system.cpu.execute: Advancing FU[5]
28000000: system.cpu.execute: Advancing FU[6]
28000000: system.cpu.execute: Advancing FU[7]
28000000: system.cpu.decode: Scheduled Thread: 0
28000000: system.cpu.execute.scoreboard0: Marking up inst: 0/1.1/1/12.12 pc: 0x1022c (auipc) regIndex: 4 final numResults: 1 returnCycle: 30
28000000: system.cpu.decode: Can pass to Execute: 0/1.1/1/12.12 pc: 0x1022c (auipc)
28000000: system.cpu.decode: Log4GUI: decode: 28000000: 0: 1022c: auipc tp, 1
28000000: system.cpu.fetch1: No active threads available to fetch from
29000000: system.cpu.writeback: Received an instruction
29000000: system.cpu.writeback: Attempting to commit [tid:0]
29000000: system.cpu.writeback: Trying to commit canCommitInsts: 1
29000000: system.cpu.writeback: Committing inst: 0/1.1/1/11.11 pc: 0x10228 (addi)
29000000: global: ExecContext setting PC: (0x10228=>0x1022c).(0=>1)
29000000: system.cpu.writeback: Log4GUI: writeback: 29000000: 0: 10228: addi gp, gp, 1020
29000000: system.cpu.writeback: Completed inst: 0/1.1/1/11.11 pc: 0x10228 (addi)
29000000: system.cpu.writeback: Reached inst commit limit
29000000: system.cpu.writeback: Popping inputBuffer[0]
29000000: system.cpu.execute: Attempting to issue [tid:0]
29000000: system.cpu.execute: Trying to issue inst: 0/1.1/1/12.12 pc: 0x1022c (auipc) to FU: 0
29000000: system.cpu.execute: Issuing inst: 0/1.1/1/12.12 pc: 0x1022c (auipc) into FU 0
29000000: system.cpu.execute: Log4GUI: execute: 29000000: 0: 1022c: auipc tp, 1: 0
29000000: system.cpu.execute: Advancing FU[0]
29000000: system.cpu.execute: Reached inst issue limit
29000000: system.cpu.execute: Stepping to next inst inputIndex: 1
29000000: system.cpu.execute: Attempting to commit [tid:0]
29000000: system.cpu.execute: Committing micro-ops for interrupt[tid:0]
29000000: system.cpu.execute: Trying to commit canCommitInsts: 1
29000000: system.cpu.execute: Committing inst: 0/1.1/1/12.12 pc: 0x1022c (auipc)
29000000: system.cpu.execute: Executing inst: 0/1.1/1/12.12 pc: 0x1022c (auipc)
29000000: global: ExecContext setting PC: (0x1022c=>0x10230).(0=>1)
29000000: system.cpu.execute: Executing nomemref inst: 0/1.1/1/12.12 pc: 0x1022c (auipc)
29000000: system.cpu.execute: Sending inst to MEM: 0/1.1/1/12.12 pc: 0x1022c (auipc)
29000000: system.cpu.execute: Unstalling 0 for inst 0/1.1/1/12.12
29000000: system.cpu.execute: Completed inst: 0/1.1/1/12.12 pc: 0x1022c (auipc)
29000000: system.cpu.execute.scoreboard0: Clearing inst: 0/1.1/1/12.12 pc: 0x1022c (auipc) regIndex: 4 final numResults: 0
29000000: system.cpu.execute: Advancing FU[0]
29000000: system.cpu.execute: Advancing FU[1]
29000000: system.cpu.execute: Advancing FU[2]
29000000: system.cpu.execute: Advancing FU[3]
29000000: system.cpu.execute: Advancing FU[4]
29000000: system.cpu.execute: Advancing FU[5]
29000000: system.cpu.execute: Advancing FU[6]
29000000: system.cpu.execute: Advancing FU[7]
29000000: system.cpu.decode: Scheduled Thread: 0
29000000: system.cpu.decoder: Requesting bytes 0x40420213 from address 0x10230
29000000: system.cpu.decode: Offering MachInst to decoder addr: 0x10230
29000000: system.cpu.decoder: Decoding instruction 0x40420213 at address 0x10230
29000000: system.cpu.decoder: Decode: Decoded addi instruction: 0x40420213
29000000: system.cpu.decode: decoder inst 0/1.1/1/13 pc: 0x10230 (addi)
29000000: system.cpu.decode: Instruction extracted from line 0/1.1/1 lineWidth: 512 output_index: 0 inputIndex: 48 pc: (0x10230=>0x10234).(0=>1) inst: 0/1.1/1/13 pc: 0x10230 (addi)
29000000: system.cpu.decode: Not attempting prediction for inst: 0/1.1/1/13 pc: 0x10230 (addi)
29000000: system.cpu.decode: Updated inputIndex value PC: (0x10200=>0x10204).(0=>1) inputIndex: 0x34 lineBaseAddr: 0x10200 lineWidth: 0x200
29000000: system.cpu.decode: Cannot pass to Execute: 0/1.1/1/13.13 pc: 0x10230 (addi)
29000000: system.cpu.decode: Log4GUI: decode: 29000000: 1: 10230: addi tp, tp, 1028
29000000: system.cpu.fetch1: No active threads available to fetch from
30000000: system.cpu.memory: Issuing inst: 0/1.1/1/12.12 pc: 0x1022c (auipc)
30000000: system.cpu.memory: Reached end of input
30000000: system.cpu.memory: Attempting to commit [tid:0]
30000000: system.cpu.memory: Committing micro-ops for interrupt[tid:0]
30000000: system.cpu.memory: Sending instruction to WB: 0/1.1/1/12.12 pc: 0x1022c (auipc)
30000000: system.cpu.memory: Completed inst: 0/1.1/1/12.12 pc: 0x1022c (auipc)
30000000: system.cpu.memory: Log4GUI: memory: 30000000: 0: 1022c: auipc tp, 1
30000000: system.cpu.execute: Advancing FU[0]
30000000: system.cpu.execute: Advancing FU[1]
30000000: system.cpu.execute: Advancing FU[2]
30000000: system.cpu.execute: Advancing FU[3]
30000000: system.cpu.execute: Advancing FU[4]
30000000: system.cpu.execute: Advancing FU[5]
30000000: system.cpu.execute: Advancing FU[6]
30000000: system.cpu.execute: Advancing FU[7]
30000000: system.cpu.decode: Scheduled Thread: 0
30000000: system.cpu.execute.scoreboard0: Marking up inst: 0/1.1/1/13.13 pc: 0x10230 (addi) regIndex: 4 final numResults: 1 returnCycle: 32
30000000: system.cpu.decode: Can pass to Execute: 0/1.1/1/13.13 pc: 0x10230 (addi)
30000000: system.cpu.decode: Log4GUI: decode: 30000000: 0: 10230: addi tp, tp, 1028
30000000: system.cpu.fetch1: No active threads available to fetch from
31000000: system.cpu.writeback: Received an instruction
31000000: system.cpu.writeback: Attempting to commit [tid:0]
31000000: system.cpu.writeback: Trying to commit canCommitInsts: 1
31000000: system.cpu.writeback: Committing inst: 0/1.1/1/12.12 pc: 0x1022c (auipc)
31000000: global: ExecContext setting PC: (0x1022c=>0x10230).(0=>1)
31000000: system.cpu.writeback: Log4GUI: writeback: 31000000: 0: 1022c: auipc tp, 1
31000000: system.cpu.writeback: Completed inst: 0/1.1/1/12.12 pc: 0x1022c (auipc)
31000000: system.cpu.writeback: Reached inst commit limit
31000000: system.cpu.writeback: Popping inputBuffer[0]
31000000: system.cpu.execute: Attempting to issue [tid:0]
31000000: system.cpu.execute: Trying to issue inst: 0/1.1/1/13.13 pc: 0x10230 (addi) to FU: 0
31000000: system.cpu.execute: Issuing inst: 0/1.1/1/13.13 pc: 0x10230 (addi) into FU 0
31000000: system.cpu.execute: Log4GUI: execute: 31000000: 0: 10230: addi tp, tp, 1028: 0
31000000: system.cpu.execute: Advancing FU[0]
31000000: system.cpu.execute: Reached inst issue limit
31000000: system.cpu.execute: Stepping to next inst inputIndex: 1
31000000: system.cpu.execute: Attempting to commit [tid:0]
31000000: system.cpu.execute: Committing micro-ops for interrupt[tid:0]
31000000: system.cpu.execute: Trying to commit canCommitInsts: 1
31000000: system.cpu.execute: Committing inst: 0/1.1/1/13.13 pc: 0x10230 (addi)
31000000: system.cpu.execute: Executing inst: 0/1.1/1/13.13 pc: 0x10230 (addi)
31000000: global: ExecContext setting PC: (0x10230=>0x10234).(0=>1)
31000000: system.cpu.execute: Executing nomemref inst: 0/1.1/1/13.13 pc: 0x10230 (addi)
31000000: system.cpu.execute: Sending inst to MEM: 0/1.1/1/13.13 pc: 0x10230 (addi)
31000000: system.cpu.execute: Unstalling 0 for inst 0/1.1/1/13.13
31000000: system.cpu.execute: Completed inst: 0/1.1/1/13.13 pc: 0x10230 (addi)
31000000: system.cpu.execute.scoreboard0: Clearing inst: 0/1.1/1/13.13 pc: 0x10230 (addi) regIndex: 4 final numResults: 0
31000000: system.cpu.execute: Advancing FU[0]
31000000: system.cpu.execute: Advancing FU[1]
31000000: system.cpu.execute: Advancing FU[2]
31000000: system.cpu.execute: Advancing FU[3]
31000000: system.cpu.execute: Advancing FU[4]
31000000: system.cpu.execute: Advancing FU[5]
31000000: system.cpu.execute: Advancing FU[6]
31000000: system.cpu.execute: Advancing FU[7]
31000000: system.cpu.decode: Scheduled Thread: 0
31000000: system.cpu.decoder: Requesting bytes 0x00001297 from address 0x10234
31000000: system.cpu.decode: Offering MachInst to decoder addr: 0x10234
31000000: system.cpu.decoder: Decoding instruction 0x00001297 at address 0x10234
31000000: system.cpu.decoder: Decode: Decoded auipc instruction: 0x1297
31000000: system.cpu.decode: decoder inst 0/1.1/1/14 pc: 0x10234 (auipc)
31000000: system.cpu.decode: Instruction extracted from line 0/1.1/1 lineWidth: 512 output_index: 0 inputIndex: 52 pc: (0x10234=>0x10238).(0=>1) inst: 0/1.1/1/14 pc: 0x10234 (auipc)
31000000: system.cpu.decode: Not attempting prediction for inst: 0/1.1/1/14 pc: 0x10234 (auipc)
31000000: system.cpu.decode: Updated inputIndex value PC: (0x10200=>0x10204).(0=>1) inputIndex: 0x38 lineBaseAddr: 0x10200 lineWidth: 0x200
31000000: system.cpu.decode: Cannot pass to Execute: 0/1.1/1/14.14 pc: 0x10234 (auipc)
31000000: system.cpu.decode: Log4GUI: decode: 31000000: 1: 10234: auipc t0, 1
31000000: system.cpu.fetch1: No active threads available to fetch from
32000000: system.cpu.memory: Issuing inst: 0/1.1/1/13.13 pc: 0x10230 (addi)
32000000: system.cpu.memory: Reached end of input
32000000: system.cpu.memory: Attempting to commit [tid:0]
32000000: system.cpu.memory: Committing micro-ops for interrupt[tid:0]
32000000: system.cpu.memory: Sending instruction to WB: 0/1.1/1/13.13 pc: 0x10230 (addi)
32000000: system.cpu.memory: Completed inst: 0/1.1/1/13.13 pc: 0x10230 (addi)
32000000: system.cpu.memory: Log4GUI: memory: 32000000: 0: 10230: addi tp, tp, 1028
32000000: system.cpu.execute: Advancing FU[0]
32000000: system.cpu.execute: Advancing FU[1]
32000000: system.cpu.execute: Advancing FU[2]
32000000: system.cpu.execute: Advancing FU[3]
32000000: system.cpu.execute: Advancing FU[4]
32000000: system.cpu.execute: Advancing FU[5]
32000000: system.cpu.execute: Advancing FU[6]
32000000: system.cpu.execute: Advancing FU[7]
32000000: system.cpu.decode: Scheduled Thread: 0
32000000: system.cpu.execute.scoreboard0: Marking up inst: 0/1.1/1/14.14 pc: 0x10234 (auipc) regIndex: 5 final numResults: 1 returnCycle: 34
32000000: system.cpu.decode: Can pass to Execute: 0/1.1/1/14.14 pc: 0x10234 (auipc)
32000000: system.cpu.decode: Log4GUI: decode: 32000000: 0: 10234: auipc t0, 1
32000000: system.cpu.fetch1: No active threads available to fetch from
33000000: system.cpu.writeback: Received an instruction
33000000: system.cpu.writeback: Attempting to commit [tid:0]
33000000: system.cpu.writeback: Trying to commit canCommitInsts: 1
33000000: system.cpu.writeback: Committing inst: 0/1.1/1/13.13 pc: 0x10230 (addi)
33000000: global: ExecContext setting PC: (0x10230=>0x10234).(0=>1)
33000000: system.cpu.writeback: Log4GUI: writeback: 33000000: 0: 10230: addi tp, tp, 1028
33000000: system.cpu.writeback: Completed inst: 0/1.1/1/13.13 pc: 0x10230 (addi)
33000000: system.cpu.writeback: Reached inst commit limit
33000000: system.cpu.writeback: Popping inputBuffer[0]
33000000: system.cpu.execute: Attempting to issue [tid:0]
33000000: system.cpu.execute: Trying to issue inst: 0/1.1/1/14.14 pc: 0x10234 (auipc) to FU: 0
33000000: system.cpu.execute: Issuing inst: 0/1.1/1/14.14 pc: 0x10234 (auipc) into FU 0
33000000: system.cpu.execute: Log4GUI: execute: 33000000: 0: 10234: auipc t0, 1: 0
33000000: system.cpu.execute: Advancing FU[0]
33000000: system.cpu.execute: Reached inst issue limit
33000000: system.cpu.execute: Stepping to next inst inputIndex: 1
33000000: system.cpu.execute: Attempting to commit [tid:0]
33000000: system.cpu.execute: Committing micro-ops for interrupt[tid:0]
33000000: system.cpu.execute: Trying to commit canCommitInsts: 1
33000000: system.cpu.execute: Committing inst: 0/1.1/1/14.14 pc: 0x10234 (auipc)
33000000: system.cpu.execute: Executing inst: 0/1.1/1/14.14 pc: 0x10234 (auipc)
33000000: global: ExecContext setting PC: (0x10234=>0x10238).(0=>1)
33000000: system.cpu.execute: Executing nomemref inst: 0/1.1/1/14.14 pc: 0x10234 (auipc)
33000000: system.cpu.execute: Sending inst to MEM: 0/1.1/1/14.14 pc: 0x10234 (auipc)
33000000: system.cpu.execute: Unstalling 0 for inst 0/1.1/1/14.14
33000000: system.cpu.execute: Completed inst: 0/1.1/1/14.14 pc: 0x10234 (auipc)
33000000: system.cpu.execute.scoreboard0: Clearing inst: 0/1.1/1/14.14 pc: 0x10234 (auipc) regIndex: 5 final numResults: 0
33000000: system.cpu.execute: Advancing FU[0]
33000000: system.cpu.execute: Advancing FU[1]
33000000: system.cpu.execute: Advancing FU[2]
33000000: system.cpu.execute: Advancing FU[3]
33000000: system.cpu.execute: Advancing FU[4]
33000000: system.cpu.execute: Advancing FU[5]
33000000: system.cpu.execute: Advancing FU[6]
33000000: system.cpu.execute: Advancing FU[7]
33000000: system.cpu.decode: Scheduled Thread: 0
33000000: system.cpu.decoder: Requesting bytes 0x40c28293 from address 0x10238
33000000: system.cpu.decode: Offering MachInst to decoder addr: 0x10238
33000000: system.cpu.decoder: Decoding instruction 0x40c28293 at address 0x10238
33000000: system.cpu.decoder: Decode: Decoded addi instruction: 0x40c28293
33000000: system.cpu.decode: decoder inst 0/1.1/1/15 pc: 0x10238 (addi)
33000000: system.cpu.decode: Instruction extracted from line 0/1.1/1 lineWidth: 512 output_index: 0 inputIndex: 56 pc: (0x10238=>0x1023c).(0=>1) inst: 0/1.1/1/15 pc: 0x10238 (addi)
33000000: system.cpu.decode: Not attempting prediction for inst: 0/1.1/1/15 pc: 0x10238 (addi)
33000000: system.cpu.decode: Updated inputIndex value PC: (0x10200=>0x10204).(0=>1) inputIndex: 0x3c lineBaseAddr: 0x10200 lineWidth: 0x200
33000000: system.cpu.decode: Cannot pass to Execute: 0/1.1/1/15.15 pc: 0x10238 (addi)
33000000: system.cpu.decode: Log4GUI: decode: 33000000: 1: 10238: addi t0, t0, 1036
33000000: system.cpu.fetch1: No active threads available to fetch from
34000000: system.cpu.memory: Issuing inst: 0/1.1/1/14.14 pc: 0x10234 (auipc)
34000000: system.cpu.memory: Reached end of input
34000000: system.cpu.memory: Attempting to commit [tid:0]
34000000: system.cpu.memory: Committing micro-ops for interrupt[tid:0]
34000000: system.cpu.memory: Sending instruction to WB: 0/1.1/1/14.14 pc: 0x10234 (auipc)
34000000: system.cpu.memory: Completed inst: 0/1.1/1/14.14 pc: 0x10234 (auipc)
34000000: system.cpu.memory: Log4GUI: memory: 34000000: 0: 10234: auipc t0, 1
34000000: system.cpu.execute: Advancing FU[0]
34000000: system.cpu.execute: Advancing FU[1]
34000000: system.cpu.execute: Advancing FU[2]
34000000: system.cpu.execute: Advancing FU[3]
34000000: system.cpu.execute: Advancing FU[4]
34000000: system.cpu.execute: Advancing FU[5]
34000000: system.cpu.execute: Advancing FU[6]
34000000: system.cpu.execute: Advancing FU[7]
34000000: system.cpu.decode: Scheduled Thread: 0
34000000: system.cpu.execute.scoreboard0: Marking up inst: 0/1.1/1/15.15 pc: 0x10238 (addi) regIndex: 5 final numResults: 1 returnCycle: 36
34000000: system.cpu.decode: Can pass to Execute: 0/1.1/1/15.15 pc: 0x10238 (addi)
34000000: system.cpu.decode: Log4GUI: decode: 34000000: 0: 10238: addi t0, t0, 1036
34000000: system.cpu.fetch1: No active threads available to fetch from
35000000: system.cpu.writeback: Received an instruction
35000000: system.cpu.writeback: Attempting to commit [tid:0]
35000000: system.cpu.writeback: Trying to commit canCommitInsts: 1
35000000: system.cpu.writeback: Committing inst: 0/1.1/1/14.14 pc: 0x10234 (auipc)
35000000: global: ExecContext setting PC: (0x10234=>0x10238).(0=>1)
35000000: system.cpu.writeback: Log4GUI: writeback: 35000000: 0: 10234: auipc t0, 1
35000000: system.cpu.writeback: Completed inst: 0/1.1/1/14.14 pc: 0x10234 (auipc)
35000000: system.cpu.writeback: Reached inst commit limit
35000000: system.cpu.writeback: Popping inputBuffer[0]
35000000: system.cpu.execute: Attempting to issue [tid:0]
35000000: system.cpu.execute: Trying to issue inst: 0/1.1/1/15.15 pc: 0x10238 (addi) to FU: 0
35000000: system.cpu.execute: Issuing inst: 0/1.1/1/15.15 pc: 0x10238 (addi) into FU 0
35000000: system.cpu.execute: Log4GUI: execute: 35000000: 0: 10238: addi t0, t0, 1036: 0
35000000: system.cpu.execute: Advancing FU[0]
35000000: system.cpu.execute: Reached inst issue limit
35000000: system.cpu.execute: Stepping to next inst inputIndex: 1
35000000: system.cpu.execute: Attempting to commit [tid:0]
35000000: system.cpu.execute: Committing micro-ops for interrupt[tid:0]
35000000: system.cpu.execute: Trying to commit canCommitInsts: 1
35000000: system.cpu.execute: Committing inst: 0/1.1/1/15.15 pc: 0x10238 (addi)
35000000: system.cpu.execute: Executing inst: 0/1.1/1/15.15 pc: 0x10238 (addi)
35000000: global: ExecContext setting PC: (0x10238=>0x1023c).(0=>1)
35000000: system.cpu.execute: Executing nomemref inst: 0/1.1/1/15.15 pc: 0x10238 (addi)
35000000: system.cpu.execute: Sending inst to MEM: 0/1.1/1/15.15 pc: 0x10238 (addi)
35000000: system.cpu.execute: Unstalling 0 for inst 0/1.1/1/15.15
35000000: system.cpu.execute: Completed inst: 0/1.1/1/15.15 pc: 0x10238 (addi)
35000000: system.cpu.execute.scoreboard0: Clearing inst: 0/1.1/1/15.15 pc: 0x10238 (addi) regIndex: 5 final numResults: 0
35000000: system.cpu.execute: Advancing FU[0]
35000000: system.cpu.execute: Advancing FU[1]
35000000: system.cpu.execute: Advancing FU[2]
35000000: system.cpu.execute: Advancing FU[3]
35000000: system.cpu.execute: Advancing FU[4]
35000000: system.cpu.execute: Advancing FU[5]
35000000: system.cpu.execute: Advancing FU[6]
35000000: system.cpu.execute: Advancing FU[7]
35000000: system.cpu.decode: Scheduled Thread: 0
35000000: system.cpu.decoder: Requesting bytes 0x0000a487 from address 0x1023c
35000000: system.cpu.decode: Offering MachInst to decoder addr: 0x1023c
35000000: system.cpu.decoder: Decoding instruction 0x0000a487 at address 0x1023c
35000000: system.cpu.decoder: Decode: Decoded flw instruction: 0xa487
35000000: system.cpu.decode: decoder inst 0/1.1/1/16 pc: 0x1023c (flw)
35000000: system.cpu.decode: Instruction extracted from line 0/1.1/1 lineWidth: 512 output_index: 0 inputIndex: 60 pc: (0x1023c=>0x10240).(0=>1) inst: 0/1.1/1/16 pc: 0x1023c (flw)
35000000: system.cpu.decode: Not attempting prediction for inst: 0/1.1/1/16 pc: 0x1023c (flw)
35000000: system.cpu.decode: Updated inputIndex value PC: (0x10200=>0x10204).(0=>1) inputIndex: 0x40 lineBaseAddr: 0x10200 lineWidth: 0x200
35000000: system.cpu.decode: Cannot pass to Execute: 0/1.1/1/16.16 pc: 0x1023c (flw)
35000000: system.cpu.decode: Log4GUI: decode: 35000000: 1: 1023c: flw fs1, 0(ra)
35000000: system.cpu.fetch1: No active threads available to fetch from
36000000: system.cpu.memory: Issuing inst: 0/1.1/1/15.15 pc: 0x10238 (addi)
36000000: system.cpu.memory: Reached end of input
36000000: system.cpu.memory: Attempting to commit [tid:0]
36000000: system.cpu.memory: Committing micro-ops for interrupt[tid:0]
36000000: system.cpu.memory: Sending instruction to WB: 0/1.1/1/15.15 pc: 0x10238 (addi)
36000000: system.cpu.memory: Completed inst: 0/1.1/1/15.15 pc: 0x10238 (addi)
36000000: system.cpu.memory: Log4GUI: memory: 36000000: 0: 10238: addi t0, t0, 1036
36000000: system.cpu.execute: Advancing FU[0]
36000000: system.cpu.execute: Advancing FU[1]
36000000: system.cpu.execute: Advancing FU[2]
36000000: system.cpu.execute: Advancing FU[3]
36000000: system.cpu.execute: Advancing FU[4]
36000000: system.cpu.execute: Advancing FU[5]
36000000: system.cpu.execute: Advancing FU[6]
36000000: system.cpu.execute: Advancing FU[7]
36000000: system.cpu.decode: Scheduled Thread: 0
36000000: system.cpu.execute.scoreboard0: Marking unpredictable result for inst: 0/1.1/1/16.16 pc: 0x1023c (flw) regIndex: 42 final numUnpredictableResults: 1
36000000: system.cpu.execute.scoreboard0: Marking up inst: 0/1.1/1/16.16 pc: 0x1023c (flw) regIndex: 42 final numResults: 1 returnCycle: 38
36000000: system.cpu.decode: Can pass to Execute: 0/1.1/1/16.16 pc: 0x1023c (flw)
36000000: system.cpu.decode: Log4GUI: decode: 36000000: 0: 1023c: flw fs1, 0(ra)
36000000: system.cpu.fetch1: No active threads available to fetch from
37000000: system.cpu.writeback: Received an instruction
37000000: system.cpu.writeback: Attempting to commit [tid:0]
37000000: system.cpu.writeback: Trying to commit canCommitInsts: 1
37000000: system.cpu.writeback: Committing inst: 0/1.1/1/15.15 pc: 0x10238 (addi)
37000000: global: ExecContext setting PC: (0x10238=>0x1023c).(0=>1)
37000000: system.cpu.writeback: Log4GUI: writeback: 37000000: 0: 10238: addi t0, t0, 1036
37000000: system.cpu.writeback: Completed inst: 0/1.1/1/15.15 pc: 0x10238 (addi)
37000000: system.cpu.writeback: Reached inst commit limit
37000000: system.cpu.writeback: Popping inputBuffer[0]
37000000: system.cpu.execute: Attempting to issue [tid:0]
37000000: system.cpu.execute: Trying to issue inst: 0/1.1/1/16.16 pc: 0x1023c (flw) to FU: 0
37000000: system.cpu.execute: Trying to issue mem inst: 0/1.1/1/16.16 pc: 0x1023c (flw)
37000000: system.cpu.execute: Issuing inst: 0/1.1/1/16.16 pc: 0x1023c (flw) into FU 0
37000000: system.cpu.execute: Pushing mem inst: 0/1.1/1/16.16 pc: 0x1023c (flw)
37000000: system.cpu.execute: Log4GUI: execute: 37000000: 0: 1023c: flw fs1, 0(ra): 0
37000000: system.cpu.execute: Advancing FU[0]
37000000: system.cpu.execute: Reached inst issue limit
37000000: system.cpu.execute: Stepping to next inst inputIndex: 1
37000000: system.cpu.execute: Attempting to commit [tid:0]
37000000: system.cpu.execute: Committing micro-ops for interrupt[tid:0]
37000000: system.cpu.execute: Trying to commit canCommitInsts: 1
37000000: system.cpu.execute: Committing inst: 0/1.1/1/16.16 pc: 0x1023c (flw)
37000000: global: ExecContext setting PC: (0x1023c=>0x10240).(0=>1)
37000000: system.cpu.execute: Initiating memRef inst: 0/1.1/1/16.16 pc: 0x1023c (flw)
37000000: system.cpu.execute: Sending mem inst to MEM: 0/1.1/1/16.16 pc: 0x1023c (flw)
37000000: system.cpu.execute: Unstalling 0 for inst 0/1.1/1/16.16
37000000: system.cpu.execute: Completed inst: 0/1.1/1/16.16 pc: 0x1023c (flw)
37000000: system.cpu.execute: Advancing FU[0]
37000000: system.cpu.execute: Advancing FU[1]
37000000: system.cpu.execute: Advancing FU[2]
37000000: system.cpu.execute: Advancing FU[3]
37000000: system.cpu.execute: Advancing FU[4]
37000000: system.cpu.execute: Advancing FU[5]
37000000: system.cpu.execute: Advancing FU[6]
37000000: system.cpu.execute: Advancing FU[7]
37000000: system.cpu.decode: Scheduled Thread: 0
37000000: system.cpu.decoder: Requesting bytes 0x00012907 from address 0x10240
37000000: system.cpu.decode: Offering MachInst to decoder addr: 0x10240
37000000: system.cpu.decoder: Decoding instruction 0x00012907 at address 0x10240
37000000: system.cpu.decoder: Decode: Decoded flw instruction: 0x12907
37000000: system.cpu.decode: decoder inst 0/1.1/1/17 pc: 0x10240 (flw)
37000000: system.cpu.decode: Instruction extracted from line 0/1.1/1 lineWidth: 512 output_index: 0 inputIndex: 64 pc: (0x10240=>0x10244).(0=>1) inst: 0/1.1/1/17 pc: 0x10240 (flw)
37000000: system.cpu.decode: Not attempting prediction for inst: 0/1.1/1/17 pc: 0x10240 (flw)
37000000: system.cpu.decode: Updated inputIndex value PC: (0x10200=>0x10204).(0=>1) inputIndex: 0x44 lineBaseAddr: 0x10200 lineWidth: 0x200
37000000: system.cpu.decode: Cannot pass to Execute: 0/1.1/1/17.17 pc: 0x10240 (flw)
37000000: system.cpu.decode: Log4GUI: decode: 37000000: 1: 10240: flw fs2, 0(sp)
37000000: system.cpu.fetch1: No active threads available to fetch from
38000000: system.cpu.memory: Issuing memref inst: 0/1.1/1/16.16 pc: 0x1023c (flw)
38000000: system.cpu.memory: Reached end of input
38000000: system.cpu.memory: Attempting to commit [tid:0]
38000000: system.cpu.memory: Committing micro-ops for interrupt[tid:0]
38000000: system.cpu.memory: Trying to commit mem response: 0/1.1/1/16.16 pc: 0x1023c (flw)
38000000: global: ExecContext setting PC: (0x1023c=>0x10240).(0=>1)
38000000: system.cpu.memory: tryToBranch before: (0x1023c=>0x10240).(0=>1) after: (0x1023c=>0x10240).(0=>1)
38000000: system.cpu.memory: Advancing current PC from: (0x1023c=>0x10240).(0=>1) to: (0x10240=>0x10244).(0=>1)
[...]
193000000: system.cpu.execute: Executing nomemref inst: 0/4.1/4/78.78 pc: 0x10274 (bne)
193000000: system.cpu.execute: Executing control inst: 0/4.1/4/78.78 pc: 0x10274 (bne)
193000000: system.cpu.execute: tryToBranch before: (0x10274=>0x10278).(0=>1) after: (0x10274=>0x10278).(0=>1)
193000000: system.cpu.execute: Advancing current PC from: (0x10274=>0x10278).(0=>1) to: (0x10278=>0x1027c).(0=>1)
193000000: system.cpu.execute: Sending inst to MEM: 0/4.1/4/78.78 pc: 0x10274 (bne)
193000000: system.cpu.execute: Unstalling 0 for inst 0/4.1/4/78.78
193000000: system.cpu.execute: Completed inst: 0/4.1/4/78.78 pc: 0x10274 (bne)
193000000: system.cpu.execute: Advancing FU[0]
193000000: system.cpu.execute: Advancing FU[1]
193000000: system.cpu.execute: Advancing FU[2]
193000000: system.cpu.execute: Advancing FU[3]
193000000: system.cpu.execute: Advancing FU[4]
193000000: system.cpu.execute: Advancing FU[5]
193000000: system.cpu.execute: Advancing FU[6]
193000000: system.cpu.execute: Advancing FU[7]
193000000: system.cpu.decode: Scheduled Thread: 0
193000000: system.cpu.decoder: Requesting bytes 0x00000013 from address 0x10278
193000000: system.cpu.decode: Offering MachInst to decoder addr: 0x10278
193000000: system.cpu.decoder: Decoding instruction 0x00000013 at address 0x10278
193000000: system.cpu.decoder: Decode: Decoded addi instruction: 0x13
193000000: system.cpu.decode: decoder inst 0/4.1/4/79 pc: 0x10278 (addi)
193000000: system.cpu.decode: Instruction extracted from line 0/4.1/4 lineWidth: 512 output_index: 0 inputIndex: 120 pc: (0x10278=>0x1027c).(0=>1) inst: 0/4.1/4/79 pc: 0x10278 (addi)
193000000: system.cpu.decode: Not attempting prediction for inst: 0/4.1/4/79 pc: 0x10278 (addi)
193000000: system.cpu.decode: Updated inputIndex value PC: (0x1023c=>0x10240).(0=>1) inputIndex: 0x7c lineBaseAddr: 0x10200 lineWidth: 0x200
193000000: system.cpu.decode: Cannot pass to Execute: 0/4.1/4/79.79 pc: 0x10278 (addi)
193000000: system.cpu.decode: Log4GUI: decode: 193000000: 1: 10278: addi zero, zero, 0
193000000: system.cpu.fetch1: No active threads available to fetch from
194000000: system.cpu.memory: Issuing inst: 0/4.1/4/78.78 pc: 0x10274 (bne)
194000000: system.cpu.memory: Reached end of input
194000000: system.cpu.memory: Attempting to commit [tid:0]
194000000: system.cpu.memory: Committing micro-ops for interrupt[tid:0]
194000000: system.cpu.memory: Sending instruction to WB: 0/4.1/4/78.78 pc: 0x10274 (bne)
194000000: system.cpu.memory: Completed inst: 0/4.1/4/78.78 pc: 0x10274 (bne)
194000000: system.cpu.memory: Log4GUI: memory: 194000000: 0: 10274: bne t1, zero, -56
194000000: system.cpu.execute: Advancing FU[0]
194000000: system.cpu.execute: Advancing FU[1]
194000000: system.cpu.execute: Advancing FU[2]
194000000: system.cpu.execute: Advancing FU[3]
194000000: system.cpu.execute: Advancing FU[4]
194000000: system.cpu.execute: Advancing FU[5]
194000000: system.cpu.execute: Advancing FU[6]
194000000: system.cpu.execute: Advancing FU[7]
194000000: system.cpu.decode: Scheduled Thread: 0
194000000: system.cpu.decode: Can pass to Execute: 0/4.1/4/79.79 pc: 0x10278 (addi)
194000000: system.cpu.decode: Log4GUI: decode: 194000000: 0: 10278: addi zero, zero, 0
194000000: system.cpu.fetch1: No active threads available to fetch from
195000000: system.cpu.writeback: Received an instruction
195000000: system.cpu.writeback: Attempting to commit [tid:0]
195000000: system.cpu.writeback: Trying to commit canCommitInsts: 1
195000000: system.cpu.writeback: Committing inst: 0/4.1/4/78.78 pc: 0x10274 (bne)
195000000: system.cpu.writeback: Not executing inst 0/4.1/4/78.78 pc: 0x10274 (bne), it should have been already executed
195000000: system.cpu.writeback: Log4GUI: writeback: 195000000: 0: 10274: bne t1, zero, -56
195000000: system.cpu.writeback: Completed inst: 0/4.1/4/78.78 pc: 0x10274 (bne)
195000000: system.cpu.writeback: Reached inst commit limit
195000000: system.cpu.writeback: Popping inputBuffer[0]
195000000: system.cpu.execute: Attempting to issue [tid:0]
195000000: system.cpu.execute: Trying to issue inst: 0/4.1/4/79.79 pc: 0x10278 (addi) to FU: 0
195000000: system.cpu.execute: Issuing inst: 0/4.1/4/79.79 pc: 0x10278 (addi) into FU 0
195000000: system.cpu.execute: Log4GUI: execute: 195000000: 0: 10278: addi zero, zero, 0: 0
195000000: system.cpu.execute: Advancing FU[0]
195000000: system.cpu.execute: Reached inst issue limit
195000000: system.cpu.execute: Stepping to next inst inputIndex: 1
195000000: system.cpu.execute: Attempting to commit [tid:0]
195000000: system.cpu.execute: Committing micro-ops for interrupt[tid:0]
195000000: system.cpu.execute: Trying to commit canCommitInsts: 1
195000000: system.cpu.execute: Committing inst: 0/4.1/4/79.79 pc: 0x10278 (addi)
195000000: system.cpu.execute: Executing inst: 0/4.1/4/79.79 pc: 0x10278 (addi)
195000000: global: ExecContext setting PC: (0x10278=>0x1027c).(0=>1)
195000000: system.cpu.execute: Executing nomemref inst: 0/4.1/4/79.79 pc: 0x10278 (addi)
195000000: system.cpu.execute: Sending inst to MEM: 0/4.1/4/79.79 pc: 0x10278 (addi)
195000000: system.cpu.execute: Unstalling 0 for inst 0/4.1/4/79.79
195000000: system.cpu.execute: Completed inst: 0/4.1/4/79.79 pc: 0x10278 (addi)
195000000: system.cpu.execute: Advancing FU[0]
195000000: system.cpu.execute: Advancing FU[1]
195000000: system.cpu.execute: Advancing FU[2]
195000000: system.cpu.execute: Advancing FU[3]
195000000: system.cpu.execute: Advancing FU[4]
195000000: system.cpu.execute: Advancing FU[5]
195000000: system.cpu.execute: Advancing FU[6]
195000000: system.cpu.execute: Advancing FU[7]
195000000: system.cpu.decode: Scheduled Thread: 0
195000000: system.cpu.decoder: Requesting bytes 0x00030513 from address 0x1027c
195000000: system.cpu.decode: Offering MachInst to decoder addr: 0x1027c
195000000: system.cpu.decoder: Decoding instruction 0x00030513 at address 0x1027c
195000000: system.cpu.decoder: Decode: Decoded addi instruction: 0x30513
195000000: system.cpu.decode: decoder inst 0/4.1/4/80 pc: 0x1027c (addi)
195000000: system.cpu.decode: Instruction extracted from line 0/4.1/4 lineWidth: 512 output_index: 0 inputIndex: 124 pc: (0x1027c=>0x10280).(0=>1) inst: 0/4.1/4/80 pc: 0x1027c (addi)
195000000: system.cpu.decode: Not attempting prediction for inst: 0/4.1/4/80 pc: 0x1027c (addi)
195000000: system.cpu.decode: Updated inputIndex value PC: (0x1023c=>0x10240).(0=>1) inputIndex: 0x80 lineBaseAddr: 0x10200 lineWidth: 0x200
195000000: system.cpu.decode: Cannot pass to Execute: 0/4.1/4/80.80 pc: 0x1027c (addi)
195000000: system.cpu.decode: Log4GUI: decode: 195000000: 1: 1027c: addi a0, t1, 0
195000000: system.cpu.fetch1: No active threads available to fetch from
196000000: system.cpu.memory: Issuing inst: 0/4.1/4/79.79 pc: 0x10278 (addi)
196000000: system.cpu.memory: Reached end of input
196000000: system.cpu.memory: Attempting to commit [tid:0]
196000000: system.cpu.memory: Committing micro-ops for interrupt[tid:0]
196000000: system.cpu.memory: Sending instruction to WB: 0/4.1/4/79.79 pc: 0x10278 (addi)
196000000: system.cpu.memory: Completed inst: 0/4.1/4/79.79 pc: 0x10278 (addi)
196000000: system.cpu.memory: Log4GUI: memory: 196000000: 0: 10278: addi zero, zero, 0
196000000: system.cpu.execute: Advancing FU[0]
196000000: system.cpu.execute: Advancing FU[1]
196000000: system.cpu.execute: Advancing FU[2]
196000000: system.cpu.execute: Advancing FU[3]
196000000: system.cpu.execute: Advancing FU[4]
196000000: system.cpu.execute: Advancing FU[5]
196000000: system.cpu.execute: Advancing FU[6]
196000000: system.cpu.execute: Advancing FU[7]
196000000: system.cpu.decode: Scheduled Thread: 0
196000000: system.cpu.execute.scoreboard0: Marking up inst: 0/4.1/4/80.80 pc: 0x1027c (addi) regIndex: 10 final numResults: 1 returnCycle: 198
196000000: system.cpu.decode: Can pass to Execute: 0/4.1/4/80.80 pc: 0x1027c (addi)
196000000: system.cpu.decode: Log4GUI: decode: 196000000: 0: 1027c: addi a0, t1, 0
196000000: system.cpu.fetch1: No active threads available to fetch from
197000000: system.cpu.writeback: Received an instruction
197000000: system.cpu.writeback: Attempting to commit [tid:0]
197000000: system.cpu.writeback: Trying to commit canCommitInsts: 1
197000000: system.cpu.writeback: Committing inst: 0/4.1/4/79.79 pc: 0x10278 (addi)
197000000: global: ExecContext setting PC: (0x10278=>0x1027c).(0=>1)
197000000: system.cpu.writeback: Log4GUI: writeback: 197000000: 0: 10278: addi zero, zero, 0
197000000: system.cpu.writeback: Completed inst: 0/4.1/4/79.79 pc: 0x10278 (addi)
197000000: system.cpu.writeback: Reached inst commit limit
197000000: system.cpu.writeback: Popping inputBuffer[0]
197000000: system.cpu.execute: Attempting to issue [tid:0]
197000000: system.cpu.execute: Trying to issue inst: 0/4.1/4/80.80 pc: 0x1027c (addi) to FU: 0
197000000: system.cpu.execute: Issuing inst: 0/4.1/4/80.80 pc: 0x1027c (addi) into FU 0
197000000: system.cpu.execute: Log4GUI: execute: 197000000: 0: 1027c: addi a0, t1, 0: 0
197000000: system.cpu.execute: Advancing FU[0]
197000000: system.cpu.execute: Reached inst issue limit
197000000: system.cpu.execute: Stepping to next inst inputIndex: 1
197000000: system.cpu.execute: Attempting to commit [tid:0]
197000000: system.cpu.execute: Committing micro-ops for interrupt[tid:0]
197000000: system.cpu.execute: Trying to commit canCommitInsts: 1
197000000: system.cpu.execute: Committing inst: 0/4.1/4/80.80 pc: 0x1027c (addi)
197000000: system.cpu.execute: Executing inst: 0/4.1/4/80.80 pc: 0x1027c (addi)
197000000: global: ExecContext setting PC: (0x1027c=>0x10280).(0=>1)
197000000: system.cpu.execute: Executing nomemref inst: 0/4.1/4/80.80 pc: 0x1027c (addi)
197000000: system.cpu.execute: Sending inst to MEM: 0/4.1/4/80.80 pc: 0x1027c (addi)
197000000: system.cpu.execute: Unstalling 0 for inst 0/4.1/4/80.80
197000000: system.cpu.execute: Completed inst: 0/4.1/4/80.80 pc: 0x1027c (addi)
197000000: system.cpu.execute.scoreboard0: Clearing inst: 0/4.1/4/80.80 pc: 0x1027c (addi) regIndex: 10 final numResults: 0
197000000: system.cpu.execute: Advancing FU[0]
197000000: system.cpu.execute: Advancing FU[1]
197000000: system.cpu.execute: Advancing FU[2]
197000000: system.cpu.execute: Advancing FU[3]
197000000: system.cpu.execute: Advancing FU[4]
197000000: system.cpu.execute: Advancing FU[5]
197000000: system.cpu.execute: Advancing FU[6]
197000000: system.cpu.execute: Advancing FU[7]
197000000: system.cpu.decode: Scheduled Thread: 0
197000000: system.cpu.decoder: Requesting bytes 0x05d00893 from address 0x10280
197000000: system.cpu.decode: Offering MachInst to decoder addr: 0x10280
197000000: system.cpu.decoder: Decoding instruction 0x05d00893 at address 0x10280
197000000: system.cpu.decoder: Decode: Decoded addi instruction: 0x5d00893
197000000: system.cpu.decode: decoder inst 0/4.1/4/81 pc: 0x10280 (addi)
197000000: system.cpu.decode: Instruction extracted from line 0/4.1/4 lineWidth: 512 output_index: 0 inputIndex: 128 pc: (0x10280=>0x10284).(0=>1) inst: 0/4.1/4/81 pc: 0x10280 (addi)
197000000: system.cpu.decode: Not attempting prediction for inst: 0/4.1/4/81 pc: 0x10280 (addi)
197000000: system.cpu.decode: Updated inputIndex value PC: (0x1023c=>0x10240).(0=>1) inputIndex: 0x84 lineBaseAddr: 0x10200 lineWidth: 0x200
197000000: system.cpu.decode: Cannot pass to Execute: 0/4.1/4/81.81 pc: 0x10280 (addi)
197000000: system.cpu.decode: Log4GUI: decode: 197000000: 1: 10280: addi a7, zero, 93
197000000: system.cpu.fetch1: No active threads available to fetch from
198000000: system.cpu.memory: Issuing inst: 0/4.1/4/80.80 pc: 0x1027c (addi)
198000000: system.cpu.memory: Reached end of input
198000000: system.cpu.memory: Attempting to commit [tid:0]
198000000: system.cpu.memory: Committing micro-ops for interrupt[tid:0]
198000000: system.cpu.memory: Sending instruction to WB: 0/4.1/4/80.80 pc: 0x1027c (addi)
198000000: system.cpu.memory: Completed inst: 0/4.1/4/80.80 pc: 0x1027c (addi)
198000000: system.cpu.memory: Log4GUI: memory: 198000000: 0: 1027c: addi a0, t1, 0
198000000: system.cpu.execute: Advancing FU[0]
198000000: system.cpu.execute: Advancing FU[1]
198000000: system.cpu.execute: Advancing FU[2]
198000000: system.cpu.execute: Advancing FU[3]
198000000: system.cpu.execute: Advancing FU[4]
198000000: system.cpu.execute: Advancing FU[5]
198000000: system.cpu.execute: Advancing FU[6]
198000000: system.cpu.execute: Advancing FU[7]
198000000: system.cpu.decode: Scheduled Thread: 0
198000000: system.cpu.execute.scoreboard0: Marking up inst: 0/4.1/4/81.81 pc: 0x10280 (addi) regIndex: 17 final numResults: 1 returnCycle: 200
198000000: system.cpu.decode: Can pass to Execute: 0/4.1/4/81.81 pc: 0x10280 (addi)
198000000: system.cpu.decode: Log4GUI: decode: 198000000: 0: 10280: addi a7, zero, 93
198000000: system.cpu.fetch1: No active threads available to fetch from
199000000: system.cpu.writeback: Received an instruction
199000000: system.cpu.writeback: Attempting to commit [tid:0]
199000000: system.cpu.writeback: Trying to commit canCommitInsts: 1
199000000: system.cpu.writeback: Committing inst: 0/4.1/4/80.80 pc: 0x1027c (addi)
199000000: global: ExecContext setting PC: (0x1027c=>0x10280).(0=>1)
199000000: system.cpu.writeback: Log4GUI: writeback: 199000000: 0: 1027c: addi a0, t1, 0
199000000: system.cpu.writeback: Completed inst: 0/4.1/4/80.80 pc: 0x1027c (addi)
199000000: system.cpu.writeback: Reached inst commit limit
199000000: system.cpu.writeback: Popping inputBuffer[0]
199000000: system.cpu.execute: Attempting to issue [tid:0]
199000000: system.cpu.execute: Trying to issue inst: 0/4.1/4/81.81 pc: 0x10280 (addi) to FU: 0
199000000: system.cpu.execute: Issuing inst: 0/4.1/4/81.81 pc: 0x10280 (addi) into FU 0
199000000: system.cpu.execute: Log4GUI: execute: 199000000: 0: 10280: addi a7, zero, 93: 0
199000000: system.cpu.execute: Advancing FU[0]
199000000: system.cpu.execute: Reached inst issue limit
199000000: system.cpu.execute: Stepping to next inst inputIndex: 1
199000000: system.cpu.execute: Attempting to commit [tid:0]
199000000: system.cpu.execute: Committing micro-ops for interrupt[tid:0]
199000000: system.cpu.execute: Trying to commit canCommitInsts: 1
199000000: system.cpu.execute: Committing inst: 0/4.1/4/81.81 pc: 0x10280 (addi)
199000000: system.cpu.execute: Executing inst: 0/4.1/4/81.81 pc: 0x10280 (addi)
199000000: global: ExecContext setting PC: (0x10280=>0x10284).(0=>1)
199000000: system.cpu.execute: Executing nomemref inst: 0/4.1/4/81.81 pc: 0x10280 (addi)
199000000: system.cpu.execute: Sending inst to MEM: 0/4.1/4/81.81 pc: 0x10280 (addi)
199000000: system.cpu.execute: Unstalling 0 for inst 0/4.1/4/81.81
199000000: system.cpu.execute: Completed inst: 0/4.1/4/81.81 pc: 0x10280 (addi)
199000000: system.cpu.execute.scoreboard0: Clearing inst: 0/4.1/4/81.81 pc: 0x10280 (addi) regIndex: 17 final numResults: 0
199000000: system.cpu.execute: Advancing FU[0]
199000000: system.cpu.execute: Advancing FU[1]
199000000: system.cpu.execute: Advancing FU[2]
199000000: system.cpu.execute: Advancing FU[3]
199000000: system.cpu.execute: Advancing FU[4]
199000000: system.cpu.execute: Advancing FU[5]
199000000: system.cpu.execute: Advancing FU[6]
199000000: system.cpu.execute: Advancing FU[7]
199000000: system.cpu.decode: Scheduled Thread: 0
199000000: system.cpu.decoder: Requesting bytes 0x00000073 from address 0x10284
199000000: system.cpu.decode: Offering MachInst to decoder addr: 0x10284
199000000: system.cpu.decoder: Decoding instruction 0x00000073 at address 0x10284
199000000: system.cpu.decoder: Decode: Decoded ecall instruction: 0x73
199000000: system.cpu.decode: decoder inst 0/4.1/4/82 pc: 0x10284 (ecall)
199000000: system.cpu.decode: Instruction extracted from line 0/4.1/4 lineWidth: 512 output_index: 0 inputIndex: 132 pc: (0x10284=>0x10288).(0=>1) inst: 0/4.1/4/82 pc: 0x10284 (ecall)
199000000: system.cpu.decode: Trying to predict for inst: 0/4.1/4/82 pc: 0x10284 (ecall)
199000000: system.cpu.branchPred: [tid:0] [sn:82] Branch predictor predicted 0 for PC (0x10284=>0x10288).(0=>1)
199000000: system.cpu.branchPred: [tid:0] [sn:82] Creating prediction history for PC (0x10284=>0x10288).(0=>1)
199000000: system.cpu.branchPred: [tid:0] [sn:82] History entry added. predHist.size(): 2
199000000: system.cpu.decode: Updated inputIndex value PC: (0x1023c=>0x10240).(0=>1) inputIndex: 0x88 lineBaseAddr: 0x10200 lineWidth: 0x200
199000000: system.cpu.decode: Can pass to Execute  aaa: 0/4.1/4/82.82 pc: 0x10284 (ecall)
199000000: system.cpu.decode: Log4GUI: decode: 199000000: 0: 10284: ecall
199000000: system.cpu.fetch1: No active threads available to fetch from
200000000: system.cpu.memory: Issuing inst: 0/4.1/4/81.81 pc: 0x10280 (addi)
200000000: system.cpu.memory: Reached end of input
200000000: system.cpu.memory: Attempting to commit [tid:0]
200000000: system.cpu.memory: Committing micro-ops for interrupt[tid:0]
200000000: system.cpu.memory: Sending instruction to WB: 0/4.1/4/81.81 pc: 0x10280 (addi)
200000000: system.cpu.memory: Completed inst: 0/4.1/4/81.81 pc: 0x10280 (addi)
200000000: system.cpu.memory: Log4GUI: memory: 200000000: 0: 10280: addi a7, zero, 93
200000000: system.cpu.execute: Attempting to issue [tid:0]
200000000: system.cpu.execute: Trying to issue inst: 0/4.1/4/82.82 pc: 0x10284 (ecall) to FU: 0
200000000: system.cpu.execute: Issuing 0/4.1/4/82.82 to 9
200000000: system.cpu.execute: Log4GUI: execute: 200000000: 0: 10284: ecall: -1
200000000: system.cpu.execute: Reached inst issue limit
200000000: system.cpu.execute: Stepping to next inst inputIndex: 1
200000000: system.cpu.execute: Attempting to commit [tid:0]
200000000: system.cpu.execute: Committing micro-ops for interrupt[tid:0]
200000000: system.cpu.execute: Trying to commit canCommitInsts: 1
200000000: system.cpu.execute: Committing no cost inst: 0/4.1/4/82.82 pc: 0x10284 (ecall)200000000: system.cpu.execute: Committing inst: 0/4.1/4/82.82 pc: 0x10284 (ecall)
200000000: system.cpu.execute: Executing inst: 0/4.1/4/82.82 pc: 0x10284 (ecall)
200000000: global: ExecContext setting PC: (0x10284=>0x10288).(0=>1)
200000000: system.cpu.execute: Executing nomemref inst: 0/4.1/4/82.82 pc: 0x10284 (ecall)
200000000: system.cpu.execute: Fault in execute of inst: 0/4.1/4/82.82 pc: 0x10284 (ecall) fault: System call
200000000: system.cpu.execute: Sending inst to MEM: 0/4.1/4/82.82 pc: 0x10284 (ecall)
200000000: system.cpu.execute: Completed inst: 0/4.1/4/82.82 pc: 0x10284 (ecall)
200000000: system.cpu.execute: Advancing FU[0]
200000000: system.cpu.execute: Advancing FU[1]
200000000: system.cpu.execute: Advancing FU[2]
200000000: system.cpu.execute: Advancing FU[3]
200000000: system.cpu.execute: Advancing FU[4]
200000000: system.cpu.execute: Advancing FU[5]
200000000: system.cpu.execute: Advancing FU[6]
200000000: system.cpu.execute: Advancing FU[7]
200000000: system.cpu.decode: Scheduled Thread: 0
200000000: system.cpu.decoder: Requesting bytes 0x00000000 from address 0x10288
200000000: system.cpu.decode: Offering MachInst to decoder addr: 0x10288
200000000: system.cpu.decoder: Decoding instruction 0x00000000 at address 0x10288
200000000: system.cpu.decoder: Decode: Decoded c_addi4spn instruction: 0
200000000: system.cpu.decode: decoder inst 0/4.1/4/83 pc: 0x10288 (c_addi4spn)
200000000: system.cpu.decode: Instruction extracted from line 0/4.1/4 lineWidth: 512 output_index: 0 inputIndex: 136 pc: (0x10288=>0x1028a).(0=>1) inst: 0/4.1/4/83 pc: 0x10288 (c_addi4spn)
200000000: system.cpu.decode: Not attempting prediction for inst: 0/4.1/4/83 pc: 0x10288 (c_addi4spn)
200000000: system.cpu.execute.scoreboard0: Marking up inst: 0/4.1/4/83.83 pc: 0x10288 (c_addi4spn) regIndex: 8 final numResults: 1 returnCycle: 202
200000000: system.cpu.decode: Can pass to Execute  aaa: 0/4.1/4/83.83 pc: 0x10288 (c_addi4spn)
200000000: system.cpu.decode: Log4GUI: decode: 200000000: 0: 10288: c_addi4spn s0, sp, 0
200000000: system.cpu.fetch1: No active threads available to fetch from
Exiting @ tick 200000000 because exiting with last active thread context
